@<TRIPOS>MOLECULE
MOL
  192   187     1     0     0
SMALL
resp


@<TRIPOS>ATOM
      1 C1          6.6560    1.6410    5.2160 c3        1 MOL     -0.029628
      2 C2          5.8370    1.3850    3.9260 c         1 MOL      0.861893
      3 O1          5.2490    2.2320    3.2940 o         1 MOL     -0.671450
      4 H1          7.5820    2.1560    4.9620 hc        1 MOL     -0.012196
      5 H2          6.0740    2.2570    5.9010 hc        1 MOL     -0.012196
      6 H3          6.8900    0.6890    5.6930 hc        1 MOL     -0.012196
      7 N1          5.8910    0.1000    3.6000 n         1 MOL     -0.876903
      8 C3          5.3660   -0.4220    2.3060 c3        1 MOL      0.569580
      9 C4          3.8350   -0.1500    1.9330 c         1 MOL      0.039021
     10 O2          3.4140   -0.3580    0.8070 o         1 MOL     -0.320465
     11 C5          5.4600   -1.9810    2.2350 c3        1 MOL     -0.340794
     12 C6          6.8210   -2.6690    2.6260 c         1 MOL      0.804945
     13 O3          7.4190   -2.2530    3.6010 o         1 MOL     -0.729259
     14 O4          7.2420   -3.5910    1.9370 o         1 MOL     -0.729259
     15 H4          6.5990   -0.3660    4.1440 hn        1 MOL      0.402981
     16 H5          5.9700   -0.1200    1.4430 h1        1 MOL      0.015157
     17 H6          5.1870   -2.2650    1.2170 hc        1 MOL      0.016170
     18 H7          4.6990   -2.3200    2.9430 hc        1 MOL      0.016170
     19 N2          3.0800    0.3350    2.8720 n         1 MOL     -0.059436
     20 C7          1.6320    0.4090    2.7940 c3        1 MOL      0.007097
     21 C8          1.1130    1.8300    2.4300 c         1 MOL      0.421912
     22 O5          1.6830    2.7750    2.8740 o         1 MOL     -0.479012
     23 C9          0.9680   -0.0790    4.0890 c3        1 MOL     -0.096347
     24 C10         0.9780   -1.6150    4.3300 c3        1 MOL     -0.170813
     25 C11         0.0810   -1.8880    5.5510 c3        1 MOL      0.196976
     26 C12         0.1280   -3.4170    5.9070 c3        1 MOL     -0.031115
     27 N3         -0.7980   -3.6780    7.0190 n4        1 MOL     -0.275144
     28 H8          3.4650    0.5540    3.7720 hn        1 MOL      0.203011
     29 H9          1.3060   -0.1820    1.9440 h1        1 MOL      0.033547
     30 H10        -0.0820    0.1860    3.9690 hc        1 MOL      0.061270
     31 H11         1.3920    0.4570    4.9420 hc        1 MOL      0.061270
     32 H12         1.9940   -2.0060    4.4640 hc        1 MOL      0.077565
     33 H13         0.5040   -2.2560    3.5850 hc        1 MOL      0.077565
     34 H14        -0.9010   -1.4330    5.4240 hc        1 MOL     -0.031599
     35 H15         0.4880   -1.3710    6.4210 hc        1 MOL     -0.031599
     36 H16         1.1200   -3.6690    6.2490 hx        1 MOL      0.088900
     37 H17        -0.1050   -3.8400    4.9340 hx        1 MOL      0.088900
     38 H18        -0.9170   -4.6560    7.2370 hn        1 MOL      0.308282
     39 H19        -0.5130   -3.1770    7.8430 hn        1 MOL      0.308282
     40 H20        -1.7520   -3.3940    6.8430 hn        1 MOL      0.308282
     41 N4          0.0450    1.9920    1.6750 n         1 MOL     -0.244376
     42 C13        -0.6990    1.0600    0.8930 c3        1 MOL     -0.112229
     43 C14        -1.3730   -0.0460    1.6660 c         1 MOL      0.637571
     44 O6         -0.8880   -1.1590    1.6170 o         1 MOL     -0.591159
     45 C15         0.0310    0.6860   -0.3770 c3        1 MOL     -0.418166
     46 C16         0.3990    1.8610   -1.2220 c         1 MOL      0.959777
     47 O7         -0.3250    2.8830   -1.2840 o         1 MOL     -0.810410
     48 O8          1.2440    1.6520   -2.1320 o         1 MOL     -0.810410
     49 H21        -0.1170    2.9680    1.4760 hn        1 MOL      0.160892
     50 H22        -1.5580    1.5930    0.4830 h1        1 MOL      0.022074
     51 H23        -0.6280    0.0080   -0.9140 hc        1 MOL      0.196930
     52 H24         0.9340    0.0940   -0.1810 hc        1 MOL      0.196930
     53 N5         -2.4870    0.1100    2.3750 n         1 MOL     -0.399733
     54 C17        -3.3870    1.2470    2.2960 c3        1 MOL     -0.084628
     55 C18        -4.5470    1.1700    3.2710 c         1 MOL      0.652751
     56 O9         -4.5560    0.3120    4.1630 o         1 MOL     -0.596263
     57 H25        -2.7890   -0.7070    2.8770 hn        1 MOL      0.286614
     58 H26        -3.7510    1.2010    1.2710 h1        1 MOL      0.087328
     59 H27        -2.8450    2.1550    2.5610 h1        1 MOL      0.087328
     60 N6         -5.5140    2.0440    3.2280 n         1 MOL     -0.487421
     61 C19        -5.6250    3.1010    2.2460 c3        1 MOL      0.055836
     62 C20        -6.5840    2.7990    1.0500 c         1 MOL      0.395077
     63 O10        -7.5030    1.9870    1.0780 o         1 MOL     -0.402261
     64 C21        -6.0550    4.3750    2.9890 c3        1 MOL     -0.071164
     65 C22        -7.4790    4.1660    3.6830 c         1 MOL      0.708329
     66 O11        -8.4810    4.3940    2.9740 o         1 MOL     -0.654116
     67 O12        -7.5730    3.9290    4.9060 o         1 MOL     -0.654116
     68 H28        -6.2600    1.9900    3.9130 hn        1 MOL      0.312762
     69 H29        -4.6810    3.4100    1.8040 h1        1 MOL      0.000812
     70 H30        -6.1840    5.1010    2.1950 hc        1 MOL     -0.021103
     71 H31        -5.3820    4.6650    3.7980 hc        1 MOL     -0.021103
     72 N7         -6.3110    3.5350   -0.0580 n         1 MOL     -0.244918
     73 C23        -7.0040    3.2120   -1.3950 c3        1 MOL     -0.459766
     74 C24        -6.6670    1.8360   -2.0560 c         1 MOL      0.604974
     75 O13        -7.5430    1.1930   -2.6010 o         1 MOL     -0.524822
     76 H32        -5.4760    4.0880   -0.0050 hn        1 MOL      0.215596
     77 H33        -6.6780    3.9670   -2.1110 h1        1 MOL      0.200214
     78 H34        -8.0600    3.3020   -1.1590 h1        1 MOL      0.200214
     79 N8         -5.4170    1.3730   -2.0130 n         1 MOL     -0.438574
     80 C25        -4.9870    0.0590   -2.5150 c3        1 MOL      0.095438
     81 C26        -5.3110   -1.0330   -1.4660 c         1 MOL      0.524834
     82 O14        -5.3050   -0.7510   -0.2090 o         1 MOL     -0.501934
     83 C27        -3.5290    0.0630   -2.9100 c3        1 MOL      0.334044
     84 C28        -3.2010    0.8540   -4.1640 c3        1 MOL     -0.194469
     85 O15        -3.1070   -1.3170   -3.1900 oh        1 MOL     -0.595518
     86 H35        -4.7730    2.0270   -1.5980 hn        1 MOL      0.220203
     87 H36        -5.5660   -0.1450   -3.4220 h1        1 MOL      0.064827
     88 H37        -2.9400    0.4760   -2.0830 h1        1 MOL      0.003547
     89 H38        -2.2490   -1.3380   -2.7570 ho        1 MOL      0.309400
     90 H39        -3.7210    1.8010   -4.1660 hc        1 MOL      0.042473
     91 H40        -2.1450    1.0970   -4.2260 hc        1 MOL      0.042473
     92 H41        -3.6400    0.4150   -5.0580 hc        1 MOL      0.042473
     93 N9         -5.5570   -2.2740   -1.8200 n         1 MOL     -0.420699
     94 C29        -5.7030   -3.4070   -0.9100 c3        1 MOL     -0.047581
     95 C30        -4.3520   -3.9930   -0.6320 c         1 MOL      0.521342
     96 O16        -4.1720   -4.4860    0.4560 o         1 MOL     -0.523880
     97 C31        -6.7820   -4.3710   -1.4450 c3        1 MOL      0.038163
     98 C32        -8.1140   -3.6440   -1.4770 c3        1 MOL      0.220636
     99 C33        -6.8250   -5.5840   -0.4880 c3        1 MOL     -0.305861
    100 C34        -8.6230   -3.1450   -0.1360 c3        1 MOL     -0.097629
    101 H42        -5.4510   -2.5030   -2.7970 hn        1 MOL      0.262600
    102 H43        -6.1510   -3.0560    0.0150 h1        1 MOL      0.130491
    103 H44        -6.5670   -4.7520   -2.4410 hc        1 MOL      0.002588
    104 H45        -8.9280   -4.2720   -1.8330 hc        1 MOL     -0.053882
    105 H46        -8.0470   -2.8280   -2.1980 hc        1 MOL     -0.053882
    106 H47        -7.7690   -6.0890   -0.7460 hc        1 MOL      0.080029
    107 H48        -6.0390   -6.2870   -0.7500 hc        1 MOL      0.080029
    108 H49        -6.7620   -5.3670    0.5730 hc        1 MOL      0.080029
    109 H50        -9.5980   -2.6910   -0.3170 hc        1 MOL      0.027360
    110 H51        -8.6760   -4.0220    0.5210 hc        1 MOL      0.027360
    111 H52        -7.9390   -2.4020    0.2820 hc        1 MOL      0.027360
    112 N10        -3.4320   -3.8650   -1.6080 n         1 MOL     -0.437250
    113 C35        -2.1230   -4.4880   -1.5810 c3        1 MOL      0.077032
    114 C36        -0.8670   -3.5230   -1.5830 c         1 MOL      0.456652
    115 O17        -0.8590   -2.4280   -2.2060 o         1 MOL     -0.419968
    116 C37        -1.9740   -5.5540   -2.7020 c3        1 MOL      0.446793
    117 C38        -1.7460   -4.8600   -4.1050 c3        1 MOL     -0.334354
    118 O18        -3.0930   -6.4700   -2.6770 oh        1 MOL     -0.632836
    119 H53        -3.6650   -3.2860   -2.4070 hn        1 MOL      0.276874
    120 H54        -2.1190   -5.0070   -0.6200 h1        1 MOL      0.005046
    121 H55        -1.0980   -6.1510   -2.4410 h1        1 MOL     -0.066422
    122 H56        -3.2520   -6.7600   -1.7820 ho        1 MOL      0.378477
    123 H57        -2.5340   -4.1480   -4.3370 hc        1 MOL      0.097913
    124 H58        -0.7700   -4.3700   -4.0130 hc        1 MOL      0.097913
    125 H59        -1.5890   -5.6900   -4.7990 hc        1 MOL      0.097913
    126 N11         0.1700   -3.9600   -0.8730 n         1 MOL     -0.379051
    127 C39         1.3890   -3.0950   -0.5340 c3        1 MOL     -0.026574
    128 C40         2.1820   -2.6490   -1.7930 c         1 MOL      0.280124
    129 O19         2.1370   -3.4380   -2.7280 o         1 MOL     -0.514418
    130 C41         2.3500   -3.7090    0.5160 c3        1 MOL      0.321266
    131 C42         3.3750   -4.7340   -0.0690 c3        1 MOL     -0.238673
    132 O20         1.6780   -4.4470    1.5490 oh        1 MOL     -0.691585
    133 H60         0.0660   -4.8420   -0.4030 hn        1 MOL      0.246904
    134 H61         0.9430   -2.1960   -0.1260 h1        1 MOL      0.102587
    135 H62         2.8540   -2.9220    1.0630 h1        1 MOL      0.185897
    136 H63         1.2350   -5.2280    1.1880 ho        1 MOL      0.419110
    137 H64         3.9590   -4.2050   -0.8230 hc        1 MOL      0.058014
    138 H65         4.0340   -4.9810    0.7540 hc        1 MOL      0.058014
    139 H66         2.8300   -5.6030   -0.4480 hc        1 MOL      0.058014
    140 N12         2.8400   -1.4990   -1.7980 n         1 MOL      0.114651
    141 C43         3.6990   -0.9190   -2.8710 c3        1 MOL     -0.041558
    142 C44         4.1000    0.4890   -2.7750 c         1 MOL      0.628565
    143 O21         4.3450    1.1510   -3.8300 o         1 MOL     -0.644366
    144 C45         4.9870   -1.7590   -2.9570 c3        1 MOL     -0.417165
    145 C46         5.9630   -1.7830   -1.7970 c3        1 MOL      0.040020
    146 C47         6.9090   -2.9980   -1.6320 c3        1 MOL      0.030382
    147 C48         7.6850   -3.2550   -2.9210 c3        1 MOL      0.139276
    148 N13         8.5420   -4.4620   -2.7120 n4        1 MOL     -0.354466
    149 H67         2.6250   -0.8960   -1.0150 hn        1 MOL     -0.202108
    150 H68         3.0740   -1.0620   -3.7530 h1        1 MOL      0.104504
    151 H69         5.6420   -1.4290   -3.7630 hc        1 MOL      0.104896
    152 H70         4.7110   -2.8010   -3.0940 hc        1 MOL      0.104896
    153 H71         5.3520   -1.6020   -0.9210 hc        1 MOL      0.015061
    154 H72         6.5450   -0.8620   -1.8380 hc        1 MOL      0.015061
    155 H73         6.3130   -3.8810   -1.4280 hc        1 MOL      0.019596
    156 H74         7.6760   -2.8340   -0.8640 hc        1 MOL      0.019596
    157 H75         8.4010   -2.4840   -3.1960 hx        1 MOL      0.049308
    158 H76         6.9820   -3.3850   -3.7370 hx        1 MOL      0.049308
    159 H77         9.1310   -4.7350   -3.4790 hn        1 MOL      0.314452
    160 H78         9.1140   -4.4050   -1.8740 hn        1 MOL      0.314452
    161 H79         7.9450   -5.2330   -2.4610 hn        1 MOL      0.314452
    162 N14         4.1000    1.0480   -1.5520 n         1 MOL      0.521269
    163 C49         4.5400    2.4560   -1.3210 c3        1 MOL     -1.296524
    164 C50         6.0610    2.5330   -0.9160 c         1 MOL      0.601011
    165 O22         6.4920    1.8140    0.0390 o         1 MOL     -0.506090
    166 C51         3.7650    3.0640   -0.1280 c3        1 MOL      0.842186
    167 C52         4.1470    4.5330    0.0970 c3        1 MOL     -0.975891
    168 C53         3.9210    5.3680   -1.2010 c         1 MOL      0.896207
    169 O23         4.9250    5.6480   -1.8490 o         1 MOL     -0.782461
    170 O24         2.7560    5.6410   -1.5290 o         1 MOL     -0.782461
    171 H80         4.1070    0.4250   -0.7530 hn        1 MOL     -0.037256
    172 H81         4.3710    3.0280   -2.2360 h1        1 MOL      0.366629
    173 H82         4.0180    2.5600    0.8000 hc        1 MOL     -0.143413
    174 H83         2.6910    3.0730   -0.3410 hc        1 MOL     -0.143413
    175 H84         5.1720    4.6670    0.4360 hc        1 MOL      0.287133
    176 H85         3.4970    4.8340    0.9210 hc        1 MOL      0.287133
    177 N15         6.8890    3.3130   -1.6230 n         1 MOL     -0.356361
    178 C54         8.3090    3.5130   -1.4510 c3        1 MOL     -0.019751
    179 H86         8.7560    3.7800   -2.4090 h1        1 MOL      0.051688
    180 H87         8.4800    4.3160   -0.7350 h1        1 MOL      0.051688
    181 H88         8.7640    2.5930   -1.0830 h1        1 MOL      0.051688
    182 H89         6.4510    3.8830   -2.3300 hn        1 MOL      0.423978
    183 Ca1         0.2140    5.4290   -2.0520 Ca        1 MOL      1.655318
    184 O25         1.5490    3.6540   -3.4900 oh        1 MOL     -0.846201
    185 H90         1.8260    3.2540   -4.3190 ho        1 MOL      0.421178
    186 H91         1.5560    2.9310   -2.8630 ho        1 MOL      0.421178
    187 O26        -0.5020    7.5150   -3.9850 oh        1 MOL     -0.846201
    188 H92        -1.0180    7.6810   -4.7760 ho        1 MOL      0.421178
    189 H93        -0.1360    8.3700   -3.7400 ho        1 MOL      0.421178
    190 O27        -1.4240    4.3740   -4.0090 oh        1 MOL     -0.846201
    191 H94        -1.0870    3.9300   -4.7840 ho        1 MOL      0.421178
    192 H95        -2.2190    3.8970   -3.7770 ho        1 MOL      0.421178
@<TRIPOS>BOND
     1    1    2 1   
     2    1    4 1   
     3    1    5 1   
     4    1    6 1   
     5    2    3 2   
     6    2    7 1   
     7    7    8 1   
     8    7   15 1   
     9    8    9 1   
    10    8   11 1   
    11    8   16 1   
    12    9   10 2   
    13    9   19 1   
    14   11   12 1   
    15   11   17 1   
    16   11   18 1   
    17   12   13 1   
    18   12   14 1   
    19   19   20 1   
    20   19   28 1   
    21   20   21 1   
    22   20   23 1   
    23   20   29 1   
    24   21   22 2   
    25   21   41 1   
    26   23   24 1   
    27   23   30 1   
    28   23   31 1   
    29   24   25 1   
    30   24   32 1   
    31   24   33 1   
    32   25   26 1   
    33   25   34 1   
    34   25   35 1   
    35   26   27 1   
    36   26   36 1   
    37   26   37 1   
    38   27   38 1   
    39   27   39 1   
    40   27   40 1   
    41   41   42 1   
    42   41   49 1   
    43   42   43 1   
    44   42   45 1   
    45   42   50 1   
    46   43   44 2   
    47   43   53 1   
    48   45   46 1   
    49   45   51 1   
    50   45   52 1   
    51   46   47 1   
    52   46   48 1   
    53   53   54 1   
    54   53   57 1   
    55   54   55 1   
    56   54   58 1   
    57   54   59 1   
    58   55   56 2   
    59   55   60 1   
    60   60   61 1   
    61   60   68 1   
    62   61   62 1   
    63   61   64 1   
    64   61   69 1   
    65   62   63 2   
    66   62   72 1   
    67   64   65 1   
    68   64   70 1   
    69   64   71 1   
    70   65   66 1   
    71   65   67 1   
    72   72   73 1   
    73   72   76 1   
    74   73   74 1   
    75   73   77 1   
    76   73   78 1   
    77   74   75 2   
    78   74   79 1   
    79   79   80 1   
    80   79   86 1   
    81   80   81 1   
    82   80   83 1   
    83   80   87 1   
    84   81   82 2   
    85   81   93 1   
    86   83   84 1   
    87   83   85 1   
    88   83   88 1   
    89   84   90 1   
    90   84   91 1   
    91   84   92 1   
    92   85   89 1   
    93   93   94 1   
    94   93  101 1   
    95   94   95 1   
    96   94   97 1   
    97   94  102 1   
    98   95   96 2   
    99   95  112 1   
   100   97   98 1   
   101   97   99 1   
   102   97  103 1   
   103   98  100 1   
   104   98  104 1   
   105   98  105 1   
   106   99  106 1   
   107   99  107 1   
   108   99  108 1   
   109  100  109 1   
   110  100  110 1   
   111  100  111 1   
   112  112  113 1   
   113  112  119 1   
   114  113  114 1   
   115  113  116 1   
   116  113  120 1   
   117  114  115 2   
   118  114  126 1   
   119  116  117 1   
   120  116  118 1   
   121  116  121 1   
   122  117  123 1   
   123  117  124 1   
   124  117  125 1   
   125  118  122 1   
   126  126  127 1   
   127  126  133 1   
   128  127  128 1   
   129  127  130 1   
   130  127  134 1   
   131  128  129 2   
   132  128  140 1   
   133  130  131 1   
   134  130  132 1   
   135  130  135 1   
   136  131  137 1   
   137  131  138 1   
   138  131  139 1   
   139  132  136 1   
   140  140  141 1   
   141  140  149 1   
   142  141  142 1   
   143  141  144 1   
   144  141  150 1   
   145  142  143 2   
   146  142  162 1   
   147  144  145 1   
   148  144  151 1   
   149  144  152 1   
   150  145  146 1   
   151  145  153 1   
   152  145  154 1   
   153  146  147 1   
   154  146  155 1   
   155  146  156 1   
   156  147  148 1   
   157  147  157 1   
   158  147  158 1   
   159  148  159 1   
   160  148  160 1   
   161  148  161 1   
   162  162  163 1   
   163  162  171 1   
   164  163  164 1   
   165  163  166 1   
   166  163  172 1   
   167  164  165 2   
   168  164  177 1   
   169  166  167 1   
   170  166  173 1   
   171  166  174 1   
   172  167  168 1   
   173  167  175 1   
   174  167  176 1   
   175  168  169 1   
   176  168  170 1   
   177  177  178 1   
   178  177  182 1   
   179  178  179 1   
   180  178  180 1   
   181  178  181 1   
   182  184  185 1   
   183  184  186 1   
   184  187  188 1   
   185  187  189 1   
   186  190  191 1   
   187  190  192 1   
@<TRIPOS>SUBSTRUCTURE
     1 MOL         1 TEMP              0 ****  ****    0 ROOT
