@<TRIPOS>MOLECULE
MOL
  192   187     1     0     0
SMALL
resp


@<TRIPOS>ATOM
      1 C1         -5.7500   -4.2770    3.9770 c3        1 MOL     -0.377016
      2 C2         -5.1390   -3.3370    2.9420 c         1 MOL      0.755878
      3 O1         -4.5010   -3.7820    1.9610 o         1 MOL     -0.610866
      4 H1         -5.0690   -5.1080    4.1590 hc        1 MOL      0.096054
      5 H2         -5.9170   -3.7340    4.9070 hc        1 MOL      0.096054
      6 H3         -6.6990   -4.6610    3.6040 hc        1 MOL      0.096054
      7 N1         -5.3290   -2.0250    3.1190 n         1 MOL     -0.675232
      8 C3         -4.9290   -0.8770    2.1750 c3        1 MOL      0.403774
      9 C4         -3.4960   -0.9250    1.6970 c         1 MOL      0.087595
     10 O2         -3.0390   -0.0460    0.8990 o         1 MOL     -0.424964
     11 C5         -5.2170    0.5170    2.7920 c3        1 MOL     -0.246912
     12 C6         -6.4790    0.6090    3.6300 c         1 MOL      0.665297
     13 O3         -6.7730   -0.2850    4.5450 o         1 MOL     -0.681566
     14 O4         -7.3260    1.5440    3.3920 o         1 MOL     -0.681566
     15 H4         -5.9010   -1.7390    3.9070 hn        1 MOL      0.304794
     16 H5         -5.5420   -1.0800    1.2900 h1        1 MOL      0.067837
     17 H6         -5.2180    1.2310    1.9590 hc        1 MOL      0.036717
     18 H7         -4.4500    0.7550    3.5220 hc        1 MOL      0.036717
     19 N2         -2.6880   -1.8110    2.2970 n         1 MOL     -0.058626
     20 C7         -1.2060   -1.7940    2.2910 c3        1 MOL      0.337910
     21 C8         -0.5440   -2.8430    1.3670 c         1 MOL      0.283891
     22 O5         -0.7120   -4.0250    1.5120 o         1 MOL     -0.522458
     23 C9         -0.5980   -1.8920    3.7410 c3        1 MOL     -0.096172
     24 C10        -1.0000   -0.8120    4.7060 c3        1 MOL     -0.065724
     25 C11        -0.1050   -0.9720    5.9630 c3        1 MOL     -0.145278
     26 C12        -0.4390    0.0610    6.9740 c3        1 MOL      0.209702
     27 N3          0.3400   -0.2290    8.2050 n4        1 MOL     -0.449263
     28 H8         -3.0730   -2.5840    2.8330 hn        1 MOL      0.117096
     29 H9         -0.9460   -0.8700    1.7690 h1        1 MOL     -0.016817
     30 H10         0.4910   -1.8900    3.6420 hc        1 MOL      0.050780
     31 H11        -0.8130   -2.8700    4.1660 hc        1 MOL      0.050780
     32 H12        -2.0720   -0.8100    4.9160 hc        1 MOL      0.032733
     33 H13        -0.8410    0.1440    4.2190 hc        1 MOL      0.032733
     34 H14         0.9420   -0.9250    5.6760 hc        1 MOL      0.054533
     35 H15        -0.2970   -1.9350    6.4350 hc        1 MOL      0.054533
     36 H16        -1.4860   -0.0220    7.2700 hx        1 MOL      0.061754
     37 H17        -0.4090    1.1130    6.7090 hx        1 MOL      0.061754
     38 H18         0.2410    0.4060    8.9840 hn        1 MOL      0.341342
     39 H19         0.2670   -1.2140    8.4200 hn        1 MOL      0.341342
     40 H20         1.3300   -0.0930    8.0260 hn        1 MOL      0.341342
     41 N4          0.4460   -2.5320    0.5300 n         1 MOL      0.003121
     42 C13         1.0310   -1.2210    0.1050 c3        1 MOL     -0.699952
     43 C14         1.3810   -0.1820    1.2030 c         1 MOL      0.745573
     44 O6          0.7540    0.8150    1.3530 o         1 MOL     -0.526796
     45 C15         0.2430   -0.6920   -1.1230 c3        1 MOL     -0.415214
     46 C16         0.3040   -1.6270   -2.3890 c         1 MOL      0.444619
     47 O7          1.0840   -2.6300   -2.3900 o         1 MOL     -0.652773
     48 O8         -0.3230   -1.3120   -3.4290 o         1 MOL     -0.652773
     49 H21         0.7660   -3.3910    0.1040 hn        1 MOL      0.132557
     50 H22         2.0540   -1.3540   -0.2280 h1        1 MOL      0.249202
     51 H23         0.4230    0.3130   -1.4980 hc        1 MOL      0.257732
     52 H24        -0.8200   -0.5920   -0.8990 hc        1 MOL      0.257732
     53 N5          2.2860   -0.4620    2.1140 n         1 MOL     -0.391147
     54 C17         3.2380   -1.5850    2.1540 c3        1 MOL      0.058753
     55 C18         4.2010   -1.4780    3.3360 c         1 MOL      0.518014
     56 O9          3.8750   -0.8860    4.3930 o         1 MOL     -0.568105
     57 H25         2.4220    0.2140    2.8430 hn        1 MOL      0.255744
     58 H26         3.7880   -1.5860    1.2090 h1        1 MOL      0.046617
     59 H27         2.7260   -2.5410    2.2630 h1        1 MOL      0.046617
     60 N6          5.3730   -2.1270    3.2240 n         1 MOL     -0.398799
     61 C19         5.7990   -3.0180    2.1720 c3        1 MOL     -0.087105
     62 C20         6.3970   -2.2870    0.9830 c         1 MOL      0.607561
     63 O10         7.0700   -1.2550    1.0850 o         1 MOL     -0.473032
     64 C21         6.8030   -4.0070    2.7850 c3        1 MOL     -0.088505
     65 C22         8.1000   -3.3900    3.3350 c         1 MOL      0.680971
     66 O11         9.1920   -3.7100    2.7930 o         1 MOL     -0.662357
     67 O12         8.0330   -2.5980    4.3130 o         1 MOL     -0.662357
     68 H28         6.0820   -1.9200    3.9190 hn        1 MOL      0.274081
     69 H29         4.8710   -3.5340    1.9100 h1        1 MOL      0.044761
     70 H30         7.0870   -4.7730    2.0610 hc        1 MOL      0.003778
     71 H31         6.3190   -4.5180    3.6070 hc        1 MOL      0.003778
     72 N7          6.2480   -2.9530   -0.1390 n         1 MOL     -0.318916
     73 C23         6.8810   -2.6640   -1.4610 c3        1 MOL     -0.286123
     74 C24         6.5110   -1.3630   -2.2110 c         1 MOL      0.448659
     75 O13         7.2320   -0.8580   -3.0770 o         1 MOL     -0.570837
     76 H32         5.4910   -3.6150   -0.1410 hn        1 MOL      0.222158
     77 H33         6.6240   -3.5090   -2.0950 h1        1 MOL      0.150043
     78 H34         7.9520   -2.8250   -1.3420 h1        1 MOL      0.150043
     79 N8          5.4550   -0.7160   -1.8630 n         1 MOL     -0.013089
     80 C25         5.0620    0.6850   -2.2220 c3        1 MOL     -0.069568
     81 C26         4.9650    1.7030   -1.0830 c         1 MOL      0.283050
     82 O14         4.6120    1.2550    0.0310 o         1 MOL     -0.457769
     83 C27         3.6630    0.6930   -2.8710 c3        1 MOL      0.535948
     84 C28         3.8170   -0.2150   -4.0530 c3        1 MOL      0.066678
     85 O15         3.2290    2.0090   -3.2450 oh        1 MOL     -0.700571
     86 H35         4.8780   -1.2030   -1.1820 hn        1 MOL      0.059248
     87 H36         5.8140    1.0750   -2.8980 h1        1 MOL      0.079870
     88 H37         3.0070    0.3030   -2.0900 h1        1 MOL      0.021003
     89 H38         2.5010    2.2170   -2.6590 ho        1 MOL      0.356046
     90 H39         3.0270    0.0190   -4.7660 hc        1 MOL     -0.055134
     91 H40         4.7210    0.0030   -4.6170 hc        1 MOL     -0.055134
     92 H41         3.7560   -1.2730   -3.8010 hc        1 MOL     -0.055134
     93 N9          5.3590    3.0040   -1.3270 n         1 MOL     -0.183686
     94 C29         5.2890    4.1250   -0.3820 c3        1 MOL     -0.156713
     95 C30         3.8710    4.4750   -0.1110 c         1 MOL      0.511939
     96 O16         3.5150    4.6780    0.9970 o         1 MOL     -0.531922
     97 C31         6.1540    5.2350   -0.8470 c3        1 MOL      0.013105
     98 C32         7.6090    4.9250   -1.0670 c3        1 MOL      0.198203
     99 C33         5.9320    6.4870    0.1160 c3        1 MOL     -0.354235
    100 C34         8.2390    4.4190    0.1990 c3        1 MOL     -0.188217
    101 H42         5.7100    3.2440   -2.2370 hn        1 MOL      0.222954
    102 H43         5.6750    3.7580    0.5660 h1        1 MOL      0.135574
    103 H44         5.8450    5.5760   -1.8380 hc        1 MOL      0.001526
    104 H45         8.0900    5.8730   -1.2900 hc        1 MOL     -0.036353
    105 H46         7.7840    4.2600   -1.9150 hc        1 MOL     -0.036353
    106 H47         4.9640    6.9410   -0.1250 hc        1 MOL      0.102507
    107 H48         6.0060    6.2850    1.1850 hc        1 MOL      0.102507
    108 H49         6.7490    7.1900   -0.0180 hc        1 MOL      0.102507
    109 H50         9.2830    4.2450   -0.0540 hc        1 MOL      0.051587
    110 H51         8.2110    5.2210    0.9430 hc        1 MOL      0.051587
    111 H52         7.8220    3.4880    0.5750 hc        1 MOL      0.051587
    112 N10         3.0560    4.6710   -1.1150 n         1 MOL     -0.189855
    113 C35         1.6640    5.0990   -1.0630 c3        1 MOL     -0.157331
    114 C36         0.6810    3.8730   -0.9150 c         1 MOL      0.702866
    115 O17         1.0410    2.7900   -1.4250 o         1 MOL     -0.573175
    116 C37         1.2630    5.7930   -2.3650 c3        1 MOL      0.372194
    117 C38         1.4030    5.1020   -3.7270 c3        1 MOL     -0.312891
    118 O18         1.9990    6.9790   -2.4410 oh        1 MOL     -0.612168
    119 H53         3.4330    4.4840   -2.0400 hn        1 MOL      0.196530
    120 H54         1.4680    5.7570   -0.2140 h1        1 MOL      0.084888
    121 H55         0.2120    6.0620   -2.2820 h1        1 MOL     -0.033618
    122 H56         1.8820    7.3710   -1.5710 ho        1 MOL      0.368564
    123 H57         1.3830    5.8700   -4.5070 hc        1 MOL      0.102313
    124 H58         2.3610    4.5700   -3.6680 hc        1 MOL      0.102313
    125 H59         0.6380    4.3490   -3.9380 hc        1 MOL      0.102313
    126 N11        -0.4530    4.1300   -0.2880 n         1 MOL     -0.588117
    127 C39        -1.4070    3.1010    0.2090 c3        1 MOL      0.171223
    128 C40        -2.7280    3.3160   -0.4900 c         1 MOL      0.467910
    129 O19        -3.0710    4.4300   -0.9310 o         1 MOL     -0.547380
    130 C41        -1.5610    3.0610    1.7060 c3        1 MOL      0.325790
    131 C42        -2.3520    4.2180    2.3620 c3        1 MOL     -0.206282
    132 O20        -0.2730    3.1110    2.1930 oh        1 MOL     -0.621805
    133 H60        -0.7090    5.0760   -0.0340 hn        1 MOL      0.310745
    134 H61        -1.0840    2.0980   -0.0720 h1        1 MOL      0.025283
    135 H62        -1.9940    2.1610    2.1430 h1        1 MOL      0.028844
    136 H63         0.1740    2.2850    2.0100 ho        1 MOL      0.361461
    137 H64        -2.0310    5.1870    1.9720 hc        1 MOL      0.049383
    138 H65        -3.4150    4.1660    2.1580 hc        1 MOL      0.049383
    139 H66        -2.2000    4.2480    3.4430 hc        1 MOL      0.049383
    140 N12        -3.4980    2.1940   -0.6530 n         1 MOL     -0.351306
    141 C43        -4.7430    2.2950   -1.3290 c3        1 MOL      0.120802
    142 C44        -5.2770    1.0160   -1.9640 c         1 MOL      0.476622
    143 O21        -6.0230    1.0550   -2.9920 o         1 MOL     -0.582785
    144 C45        -5.8140    2.9540   -0.3710 c3        1 MOL     -0.147970
    145 C46        -7.1180    3.3950   -1.1370 c3        1 MOL     -0.170707
    146 C47        -7.9780    4.3910   -0.3600 c3        1 MOL      0.252891
    147 C48        -9.1780    4.8650   -1.1590 c3        1 MOL      0.081538
    148 N13       -10.0410    5.7330   -0.2920 n4        1 MOL     -0.414137
    149 H67        -3.2090    1.2480   -0.4540 hn        1 MOL      0.131909
    150 H68        -4.6870    2.9790   -2.1810 h1        1 MOL      0.070459
    151 H69        -5.3130    3.8540   -0.0010 hc        1 MOL      0.062973
    152 H70        -6.0870    2.4050    0.5210 hc        1 MOL      0.062973
    153 H71        -7.8140    2.5660   -1.2440 hc        1 MOL      0.062226
    154 H72        -6.8350    3.8070   -2.1080 hc        1 MOL      0.062226
    155 H73        -7.3930    5.2770   -0.1350 hc        1 MOL     -0.028667
    156 H74        -8.2690    4.0270    0.6200 hc        1 MOL     -0.028667
    157 H75        -9.7200    4.0520   -1.6400 hx        1 MOL      0.044531
    158 H76        -8.8000    5.4380   -2.0120 hx        1 MOL      0.044531
    159 H77       -10.4400    5.3320    0.5520 hn        1 MOL      0.322639
    160 H78        -9.5710    6.6170   -0.1830 hn        1 MOL      0.322639
    161 H79       -10.8500    5.9760   -0.8450 hn        1 MOL      0.322639
    162 N14        -4.8730   -0.1850   -1.4620 n         1 MOL     -0.088442
    163 C49        -5.0900   -1.4850   -2.1110 c3        1 MOL     -0.525577
    164 C50        -6.4030   -2.1600   -1.6890 c         1 MOL      0.650159
    165 O22        -6.7740   -2.2960   -0.5010 o         1 MOL     -0.498658
    166 C51        -3.8580   -2.4160   -1.8230 c3        1 MOL      0.083133
    167 C52        -3.7560   -3.7530   -2.5380 c3        1 MOL     -0.100352
    168 C53        -2.3570   -4.1290   -2.9580 c         1 MOL      0.699137
    169 O23        -2.0730   -4.2120   -4.1390 o         1 MOL     -0.713801
    170 O24        -1.4880   -4.4810   -2.1010 o         1 MOL     -0.713801
    171 H80        -4.4830   -0.2550   -0.5420 hn        1 MOL      0.091212
    172 H81        -5.1100   -1.2150   -3.1630 h1        1 MOL      0.200097
    173 H82        -3.8340   -2.5840   -0.7410 hc        1 MOL      0.103307
    174 H83        -2.9530   -1.8130   -1.9650 hc        1 MOL      0.103307
    175 H84        -4.4550   -3.9030   -3.3700 hc        1 MOL      0.016073
    176 H85        -4.1910   -4.5040   -1.8800 hc        1 MOL      0.016073
    177 N15        -7.2360   -2.5330   -2.6900 n         1 MOL     -0.327783
    178 C54        -8.5430   -3.2040   -2.5170 c3        1 MOL     -0.153884
    179 H86        -8.3890   -4.2790   -2.4260 h1        1 MOL      0.087912
    180 H87        -9.0280   -2.8290   -1.6170 h1        1 MOL      0.087912
    181 H88        -9.1740   -3.0000   -3.3830 h1        1 MOL      0.087912
    182 H89        -7.0370   -2.2230   -3.6350 hn        1 MOL      0.254934
    183 Ca1         0.4920   -4.7280   -3.6360 Ca        1 MOL      1.752446
    184 O25        -0.3550   -5.5150   -6.0280 oh        1 MOL     -0.891783
    185 O26        -0.0860   -7.5910   -3.4870 oh        1 MOL     -0.891783
    186 H90         0.4170   -5.9730   -6.3710 ho        1 MOL      0.441750
    187 H91         0.3630   -8.4350   -3.4400 ho        1 MOL      0.441750
    188 H92        -0.7600   -5.1210   -6.8010 ho        1 MOL      0.441750
    189 H93        -0.9790   -7.8100   -3.7490 ho        1 MOL      0.441750
    190 O27         1.7720   -2.8930   -5.1510 oh        1 MOL     -0.891783
    191 H94         1.4880   -2.0280   -4.8470 ho        1 MOL      0.441750
    192 H95         2.5230   -2.7140   -5.7210 ho        1 MOL      0.441750
@<TRIPOS>BOND
     1    1    2 1   
     2    1    4 1   
     3    1    5 1   
     4    1    6 1   
     5    2    3 2   
     6    2    7 1   
     7    7    8 1   
     8    7   15 1   
     9    8    9 1   
    10    8   11 1   
    11    8   16 1   
    12    9   10 2   
    13    9   19 1   
    14   11   12 1   
    15   11   17 1   
    16   11   18 1   
    17   12   13 1   
    18   12   14 1   
    19   19   20 1   
    20   19   28 1   
    21   20   21 1   
    22   20   23 1   
    23   20   29 1   
    24   21   22 2   
    25   21   41 1   
    26   23   24 1   
    27   23   30 1   
    28   23   31 1   
    29   24   25 1   
    30   24   32 1   
    31   24   33 1   
    32   25   26 1   
    33   25   34 1   
    34   25   35 1   
    35   26   27 1   
    36   26   36 1   
    37   26   37 1   
    38   27   38 1   
    39   27   39 1   
    40   27   40 1   
    41   41   42 1   
    42   41   49 1   
    43   42   43 1   
    44   42   45 1   
    45   42   50 1   
    46   43   44 2   
    47   43   53 1   
    48   45   46 1   
    49   45   51 1   
    50   45   52 1   
    51   46   47 1   
    52   46   48 1   
    53   53   54 1   
    54   53   57 1   
    55   54   55 1   
    56   54   58 1   
    57   54   59 1   
    58   55   56 2   
    59   55   60 1   
    60   60   61 1   
    61   60   68 1   
    62   61   62 1   
    63   61   64 1   
    64   61   69 1   
    65   62   63 2   
    66   62   72 1   
    67   64   65 1   
    68   64   70 1   
    69   64   71 1   
    70   65   66 1   
    71   65   67 1   
    72   72   73 1   
    73   72   76 1   
    74   73   74 1   
    75   73   77 1   
    76   73   78 1   
    77   74   75 2   
    78   74   79 1   
    79   79   80 1   
    80   79   86 1   
    81   80   81 1   
    82   80   83 1   
    83   80   87 1   
    84   81   82 2   
    85   81   93 1   
    86   83   84 1   
    87   83   85 1   
    88   83   88 1   
    89   84   90 1   
    90   84   91 1   
    91   84   92 1   
    92   85   89 1   
    93   93   94 1   
    94   93  101 1   
    95   94   95 1   
    96   94   97 1   
    97   94  102 1   
    98   95   96 2   
    99   95  112 1   
   100   97   98 1   
   101   97   99 1   
   102   97  103 1   
   103   98  100 1   
   104   98  104 1   
   105   98  105 1   
   106   99  106 1   
   107   99  107 1   
   108   99  108 1   
   109  100  109 1   
   110  100  110 1   
   111  100  111 1   
   112  112  113 1   
   113  112  119 1   
   114  113  114 1   
   115  113  116 1   
   116  113  120 1   
   117  114  115 2   
   118  114  126 1   
   119  116  117 1   
   120  116  118 1   
   121  116  121 1   
   122  117  123 1   
   123  117  124 1   
   124  117  125 1   
   125  118  122 1   
   126  126  127 1   
   127  126  133 1   
   128  127  128 1   
   129  127  130 1   
   130  127  134 1   
   131  128  129 2   
   132  128  140 1   
   133  130  131 1   
   134  130  132 1   
   135  130  135 1   
   136  131  137 1   
   137  131  138 1   
   138  131  139 1   
   139  132  136 1   
   140  140  141 1   
   141  140  149 1   
   142  141  142 1   
   143  141  144 1   
   144  141  150 1   
   145  142  143 2   
   146  142  162 1   
   147  144  145 1   
   148  144  151 1   
   149  144  152 1   
   150  145  146 1   
   151  145  153 1   
   152  145  154 1   
   153  146  147 1   
   154  146  155 1   
   155  146  156 1   
   156  147  148 1   
   157  147  157 1   
   158  147  158 1   
   159  148  159 1   
   160  148  160 1   
   161  148  161 1   
   162  162  163 1   
   163  162  171 1   
   164  163  164 1   
   165  163  166 1   
   166  163  172 1   
   167  164  165 2   
   168  164  177 1   
   169  166  167 1   
   170  166  173 1   
   171  166  174 1   
   172  167  168 1   
   173  167  175 1   
   174  167  176 1   
   175  168  169 1   
   176  168  170 1   
   177  177  178 1   
   178  177  182 1   
   179  178  179 1   
   180  178  180 1   
   181  178  181 1   
   182  184  186 1   
   183  184  188 1   
   184  185  187 1   
   185  185  189 1   
   186  190  191 1   
   187  190  192 1   
@<TRIPOS>SUBSTRUCTURE
     1 MOL         1 TEMP              0 ****  ****    0 ROOT
