@<TRIPOS>MOLECULE
MOL
  181   177     1     0     0
SMALL
resp


@<TRIPOS>ATOM
      1 C1         10.2200    7.3070   -0.6840 c3        1 MOL     -0.259472
      2 C2          9.3350    6.3230   -0.0310 c         1 MOL      0.673811
      3 O1          8.5170    6.7550    0.7440 o         1 MOL     -0.566201
      4 H1          9.7530    7.6630   -1.6020 hc        1 MOL      0.056480
      5 H2         10.3860    8.1490   -0.0120 hc        1 MOL      0.056480
      6 H3         11.1740    6.8360   -0.9210 hc        1 MOL      0.056480
      7 N1          9.3800    4.9820   -0.3730 n         1 MOL     -0.562569
      8 C3         10.2690    4.3290   -1.3300 c3        1 MOL      0.274399
      9 C4         11.2700    3.2810   -0.7240 c         1 MOL      0.308582
     10 O2         11.7480    2.4230   -1.5060 o         1 MOL     -0.539204
     11 C5          9.3350    3.6580   -2.5040 c3        1 MOL     -0.497241
     12 C6          8.3680    2.6170   -1.9840 c         1 MOL      0.859705
     13 O3          7.5600    2.0590   -2.7980 o         1 MOL     -0.777743
     14 O4          8.2890    2.2920   -0.8000 o         1 MOL     -0.777743
     15 H4          8.7350    4.3470    0.0760 hn        1 MOL      0.356984
     16 H5         10.9670    5.0310   -1.7830 h1        1 MOL      0.039868
     17 H6          9.9960    3.2370   -3.2570 hc        1 MOL      0.131347
     18 H7          8.8230    4.5510   -2.8720 hc        1 MOL      0.131347
     19 N2         11.5060    3.2240    0.5640 n         1 MOL     -0.222608
     20 C7         12.4190    2.3540    1.2640 c3        1 MOL      0.152020
     21 C8         11.7740    0.9990    1.5540 c         1 MOL      0.442578
     22 O5         12.4630    0.1820    2.1990 o         1 MOL     -0.559830
     23 C9         12.9550    3.0970    2.5460 c3        1 MOL     -0.355074
     24 H8         11.0450    3.9110    1.1480 hn        1 MOL      0.174534
     25 H9         13.2510    2.3140    0.5610 h1        1 MOL      0.052848
     26 H10        12.1870    3.0570    3.3150 hc        1 MOL      0.108566
     27 H11        13.7750    2.5170    2.9770 hc        1 MOL      0.108566
     28 H12        13.3030    4.0860    2.2430 hc        1 MOL      0.108566
     29 N3         10.5720    0.6510    1.0460 n         1 MOL     -0.471791
     30 C10         9.8530   -0.5420    1.4800 c3        1 MOL      0.416606
     31 C11         9.2670   -1.1770    0.2390 c         1 MOL      0.372083
     32 O6          8.7720   -0.5950   -0.7770 o         1 MOL     -0.521456
     33 C12         8.7610   -0.2110    2.4470 c3        1 MOL     -0.193295
     34 C13         7.7550    0.7940    2.0320 c         1 MOL      0.736308
     35 O7          6.7820    0.5200    1.3060 o         1 MOL     -0.683185
     36 O8          7.9950    1.9800    2.4060 o         1 MOL     -0.683185
     37 H13        10.1100    1.3120    0.4370 hn        1 MOL      0.311509
     38 H14        10.5210   -1.2730    1.9340 h1        1 MOL     -0.036257
     39 H15         9.1880    0.0310    3.4240 hc        1 MOL      0.009838
     40 H16         8.1940   -1.1390    2.5440 hc        1 MOL      0.009838
     41 N4          9.1190   -2.4740    0.4320 n         1 MOL     -0.423921
     42 C14         8.5400   -3.3440   -0.6040 c3        1 MOL     -0.137673
     43 C15         7.0700   -3.1600   -0.8700 c         1 MOL      0.699654
     44 O9          6.3940   -2.3330   -0.3130 o         1 MOL     -0.540551
     45 H17         9.3850   -2.8060    1.3510 hn        1 MOL      0.313626
     46 H18         8.7490   -4.4020   -0.4310 h1        1 MOL      0.109246
     47 H19         9.1510   -3.1380   -1.4740 h1        1 MOL      0.109246
     48 N5          6.4710   -3.9530   -1.7260 n         1 MOL     -0.710681
     49 C16         5.1190   -3.9750   -2.0880 c3        1 MOL      0.383783
     50 C17         4.0800   -4.1540   -0.9460 c         1 MOL      0.604921
     51 O10         4.2370   -4.9390    0.0190 o         1 MOL     -0.550125
     52 C18         4.9550   -5.0240   -3.2220 c3        1 MOL     -0.465996
     53 C19         3.6070   -4.9260   -4.0670 c         1 MOL      0.694946
     54 N6          3.3870   -5.7920   -4.9890 n         1 MOL     -0.775428
     55 O11         2.9120   -3.9480   -3.9020 o         1 MOL     -0.515795
     56 H20         7.0760   -4.5780   -2.2410 hn        1 MOL      0.302278
     57 H21         4.9000   -3.0200   -2.5590 h1        1 MOL     -0.009446
     58 H22         5.1330   -6.0470   -2.8970 hc        1 MOL      0.113953
     59 H23         5.7240   -4.8080   -3.9630 hc        1 MOL      0.113953
     60 H24         4.0260   -6.5720   -5.0930 hn        1 MOL      0.373444
     61 H25         2.5040   -5.8550   -5.4850 hn        1 MOL      0.373444
     62 N7          2.9320   -3.5440   -1.1530 n         1 MOL     -0.526019
     63 C20         1.7650   -3.7320   -0.3520 c3        1 MOL      0.059172
     64 C21         1.7480   -3.0680    1.0320 c         1 MOL      0.488359
     65 O12         2.6500   -2.2750    1.3140 o         1 MOL     -0.507432
     66 H26         2.7510   -3.2410   -2.1070 hn        1 MOL      0.262325
     67 H27         1.5870   -4.8000   -0.2610 h1        1 MOL      0.091578
     68 H28         0.8650   -3.4420   -0.8930 h1        1 MOL      0.091578
     69 N8          0.7660   -3.2760    1.9400 n         1 MOL     -0.446760
     70 C22        -0.3650   -4.1990    1.7770 c3        1 MOL     -0.049273
     71 C23        -1.6670   -3.4030    1.6390 c         1 MOL      0.694859
     72 O13        -2.4850   -3.8630    0.8540 o         1 MOL     -0.589193
     73 C24        -0.5140   -5.1070    3.0970 c3        1 MOL      0.389294
     74 C25         0.6520   -6.0800    3.2780 c3        1 MOL     -0.481619
     75 O14        -0.5230   -4.2700    4.2870 oh        1 MOL     -0.578285
     76 H29         0.7350   -2.7940    2.8270 hn        1 MOL      0.323609
     77 H30        -0.2430   -4.8850    0.9370 h1        1 MOL      0.056508
     78 H31        -1.4420   -5.6500    2.9230 h1        1 MOL     -0.008280
     79 H32        -0.4640   -4.9080    5.0050 ho        1 MOL      0.376309
     80 H33         0.8700   -6.5880    2.3380 hc        1 MOL      0.121457
     81 H34         1.4500   -5.5300    3.7620 hc        1 MOL      0.121457
     82 H35         0.2910   -6.8870    3.9100 hc        1 MOL      0.121457
     83 N9         -2.0000   -2.2300    2.2250 n         1 MOL     -0.644448
     84 C26        -3.3360   -1.6360    2.3130 c3        1 MOL      0.195791
     85 C27        -3.6320   -0.5140    1.2830 c         1 MOL      0.492056
     86 O15        -2.8640    0.4670    1.1710 o         1 MOL     -0.600028
     87 C28        -3.6690   -1.0950    3.7930 c3        1 MOL      0.025286
     88 C29        -3.2680   -2.0750    4.8630 c3        1 MOL     -0.178858
     89 C30        -5.0610   -0.5500    3.9860 c3        1 MOL      0.068895
     90 C31        -4.0700   -3.3540    4.9330 c3        1 MOL     -0.089762
     91 H36        -1.2930   -1.7720    2.7780 hn        1 MOL      0.301288
     92 H37        -4.0530   -2.4490    2.1490 h1        1 MOL      0.137309
     93 H38        -3.1070   -0.1780    3.9770 hc        1 MOL      0.022133
     94 H39        -3.4080   -1.6490    5.8590 hc        1 MOL      0.054891
     95 H40        -2.2040   -2.2460    4.7170 hc        1 MOL      0.054891
     96 H41        -5.2410    0.2490    3.2640 hc        1 MOL     -0.002130
     97 H42        -5.7860   -1.3580    3.9020 hc        1 MOL     -0.002130
     98 H43        -5.2260   -0.1040    4.9630 hc        1 MOL     -0.002130
     99 H44        -5.1460   -3.1880    5.0490 hc        1 MOL      0.008373
    100 H45        -3.9310   -3.8870    3.9990 hc        1 MOL      0.008373
    101 H46        -3.7530   -3.9340    5.8020 hc        1 MOL      0.008373
    102 N10        -4.7520   -0.4450    0.5820 n         1 MOL     -0.227165
    103 C32        -5.8910   -1.3630    0.4900 c3        1 MOL     -0.165368
    104 C33        -7.0860   -0.5300    0.0720 c         1 MOL      0.683226
    105 O16        -6.9520    0.6310   -0.1470 o         1 MOL     -0.413611
    106 C34        -5.6410   -2.5060   -0.4420 c3        1 MOL     -0.011485
    107 C35        -5.4130   -2.0270   -1.8300 c         1 MOL      0.646214
    108 O17        -4.2540   -1.6230   -2.1420 o         1 MOL     -0.710991
    109 O18        -6.3810   -1.9020   -2.5540 o         1 MOL     -0.710991
    110 H47        -4.8660    0.4560    0.1340 hn        1 MOL      0.249364
    111 H48        -6.0330   -1.8260    1.4710 h1        1 MOL      0.032375
    112 H49        -6.5360   -3.1290   -0.3860 hc        1 MOL     -0.035135
    113 H50        -4.7960   -3.1260   -0.1520 hc        1 MOL     -0.035135
    114 N11        -8.3220   -1.1100    0.0120 n         1 MOL     -0.690882
    115 C36        -9.5030   -0.4420   -0.4440 c3        1 MOL      0.310604
    116 C37       -10.2580    0.3210    0.6720 c         1 MOL      0.303016
    117 O19       -10.3030   -0.0650    1.8350 o         1 MOL     -0.505251
    118 C38       -10.3320   -1.6280   -1.0050 c3        1 MOL     -0.254405
    119 C39       -11.3940   -1.3290   -2.0160 ca        1 MOL      0.182574
    120 C40       -11.1890   -1.4130   -3.4030 ca        1 MOL     -0.241945
    121 C41       -12.7060   -1.0480   -1.5230 ca        1 MOL     -0.241945
    122 C42       -12.1940   -1.0950   -4.2980 ca        1 MOL     -0.077218
    123 C43       -13.7530   -0.8590   -2.4520 ca        1 MOL     -0.077218
    124 C44       -13.4550   -0.8050   -3.8290 ca        1 MOL     -0.161738
    125 H51        -8.4380   -2.0530    0.3470 hn        1 MOL      0.355316
    126 H52        -9.2020    0.2510   -1.2300 h1        1 MOL      0.083673
    127 H53       -10.7770   -2.3240   -0.2990 hc        1 MOL      0.075882
    128 H54        -9.6360   -2.2560   -1.5770 hc        1 MOL      0.075882
    129 H55       -10.2390   -1.7400   -3.7980 ha        1 MOL      0.161669
    130 H56       -12.8420   -0.9480   -0.4620 ha        1 MOL      0.161669
    131 H57       -11.9260   -1.0440   -5.3510 ha        1 MOL      0.099031
    132 H58       -14.7570   -0.6800   -2.0910 ha        1 MOL      0.099031
    133 H59       -14.1990   -0.5090   -4.5520 ha        1 MOL      0.094873
    134 N12       -10.9420    1.4250    0.3420 n         1 MOL      0.045185
    135 C45       -10.8490    2.1330   -0.8600 c3        1 MOL      0.032005
    136 C46        -9.5060    2.8570   -1.1410 c         1 MOL      0.437662
    137 O20        -8.9630    2.7230   -2.2010 o         1 MOL     -0.554421
    138 C47       -12.0310    3.1500   -0.9100 c3        1 MOL      0.049829
    139 C48       -12.9810    2.5370    0.1220 c3        1 MOL      0.004819
    140 C49       -11.9960    2.0170    1.1320 c3        1 MOL     -0.231045
    141 H60       -11.0130    1.4370   -1.6880 h1        1 MOL      0.038960
    142 H61       -11.6470    4.1340   -0.6740 hc        1 MOL     -0.002649
    143 H62       -12.4590    3.2350   -1.9130 hc        1 MOL     -0.002649
    144 H63       -13.6420    3.2960    0.5190 hc        1 MOL     -0.005355
    145 H64       -13.5250    1.7080   -0.3360 hc        1 MOL     -0.005355
    146 H65       -11.7420    2.7810    1.8620 h1        1 MOL      0.095832
    147 H66       -12.4400    1.1520    1.6200 h1        1 MOL      0.095832
    148 N13        -8.9130    3.4410   -0.0500 n         1 MOL     -0.354404
    149 C50        -7.6520    4.1400    0.0560 c3        1 MOL      0.162627
    150 C51        -7.7690    5.5040   -0.7200 c         1 MOL      0.404307
    151 O21        -8.2360    6.4560   -0.1200 o         1 MOL     -0.566280
    152 C52        -7.2290    4.2130    1.5780 c3        1 MOL      0.061337
    153 C53        -6.7230    2.8000    2.0360 c3        1 MOL     -0.073937
    154 C54        -6.6260    2.8060    3.5230 c         1 MOL      0.700967
    155 O22        -7.5770    2.3420    4.2120 o         1 MOL     -0.727382
    156 O23        -5.5870    3.2670    4.0110 o         1 MOL     -0.727382
    157 H67        -9.3810    3.2290    0.8200 hn        1 MOL      0.240650
    158 H68        -6.9480    3.5040   -0.4760 h1        1 MOL      0.018663
    159 H69        -8.2020    4.3730    2.0380 hc        1 MOL     -0.005983
    160 H70        -6.5810    5.0520    1.8180 hc        1 MOL     -0.005983
    161 H71        -5.7220    2.5850    1.6560 hc        1 MOL     -0.021777
    162 H72        -7.4510    2.0300    1.7710 hc        1 MOL     -0.021777
    163 N14        -7.4300    5.6160   -2.0300 n         1 MOL     -0.297397
    164 C55        -6.6550    4.5880   -2.8620 c3        1 MOL     -0.261011
    165 H73        -6.5210    4.9670   -3.8750 h1        1 MOL      0.119450
    166 H74        -5.6790    4.4130   -2.4080 h1        1 MOL      0.119450
    167 H75        -7.2120    3.6520   -2.8960 h1        1 MOL      0.119450
    168 H76        -7.5700    6.5240   -2.4570 hn        1 MOL      0.241820
    169 Ca1         6.4060    0.4440   -1.2330 Ca        1 MOL      1.735724
    170 O24         3.9760   -0.5470   -0.6070 oh        1 MOL     -0.822160
    171 H77         3.7430   -1.1280    0.1120 ho        1 MOL      0.400038
    172 H78         3.2000   -0.5440   -1.1720 ho        1 MOL      0.400038
    173 O25         4.6030    0.6860   -3.2510 oh        1 MOL     -0.822160
    174 H79         3.7460    0.2760   -3.3010 ho        1 MOL      0.400038
    175 H80         4.6340    1.2860   -4.0050 ho        1 MOL      0.400038
    176 O26         4.7650    2.0850   -0.0170 oh        1 MOL     -0.822160
    177 H81         4.0450    2.3210   -0.6100 ho        1 MOL      0.400038
    178 H82         4.3230    1.7390    0.7530 ho        1 MOL      0.400038
    179 O27         6.7780   -1.2230   -3.3880 oh        1 MOL     -0.822160
    180 H83         6.1320   -1.4650   -4.0490 ho        1 MOL      0.400038
    181 H84         7.6190   -1.2990   -3.8300 ho        1 MOL      0.400038
@<TRIPOS>BOND
     1    1    2 1   
     2    1    4 1   
     3    1    5 1   
     4    1    6 1   
     5    2    3 2   
     6    2    7 1   
     7    7    8 1   
     8    7   15 1   
     9    8    9 1   
    10    8   11 1   
    11    8   16 1   
    12    9   10 2   
    13    9   19 1   
    14   11   12 1   
    15   11   17 1   
    16   11   18 1   
    17   12   13 1   
    18   12   14 1   
    19   19   20 1   
    20   19   24 1   
    21   20   21 1   
    22   20   23 1   
    23   20   25 1   
    24   21   22 2   
    25   21   29 1   
    26   23   26 1   
    27   23   27 1   
    28   23   28 1   
    29   29   30 1   
    30   29   37 1   
    31   30   31 1   
    32   30   33 1   
    33   30   38 1   
    34   31   32 2   
    35   31   41 1   
    36   33   34 1   
    37   33   39 1   
    38   33   40 1   
    39   34   35 1   
    40   34   36 1   
    41   41   42 1   
    42   41   45 1   
    43   42   43 1   
    44   42   46 1   
    45   42   47 1   
    46   43   44 2   
    47   43   48 1   
    48   48   49 1   
    49   48   56 1   
    50   49   50 1   
    51   49   52 1   
    52   49   57 1   
    53   50   51 2   
    54   50   62 1   
    55   52   53 1   
    56   52   58 1   
    57   52   59 1   
    58   53   54 1   
    59   53   55 2   
    60   54   60 1   
    61   54   61 1   
    62   62   63 1   
    63   62   66 1   
    64   63   64 1   
    65   63   67 1   
    66   63   68 1   
    67   64   65 2   
    68   64   69 1   
    69   69   70 1   
    70   69   76 1   
    71   70   71 1   
    72   70   73 1   
    73   70   77 1   
    74   71   72 2   
    75   71   83 1   
    76   73   74 1   
    77   73   75 1   
    78   73   78 1   
    79   74   80 1   
    80   74   81 1   
    81   74   82 1   
    82   75   79 1   
    83   83   84 1   
    84   83   91 1   
    85   84   85 1   
    86   84   87 1   
    87   84   92 1   
    88   85   86 2   
    89   85  102 1   
    90   87   88 1   
    91   87   89 1   
    92   87   93 1   
    93   88   90 1   
    94   88   94 1   
    95   88   95 1   
    96   89   96 1   
    97   89   97 1   
    98   89   98 1   
    99   90   99 1   
   100   90  100 1   
   101   90  101 1   
   102  102  103 1   
   103  102  110 1   
   104  103  104 1   
   105  103  106 1   
   106  103  111 1   
   107  104  105 2   
   108  104  114 1   
   109  106  107 1   
   110  106  112 1   
   111  106  113 1   
   112  107  108 1   
   113  107  109 1   
   114  114  115 1   
   115  114  125 1   
   116  115  116 1   
   117  115  118 1   
   118  115  126 1   
   119  116  117 2   
   120  116  134 1   
   121  118  119 1   
   122  118  127 1   
   123  118  128 1   
   124  119  120 ar  
   125  119  121 ar  
   126  120  122 ar  
   127  120  129 1   
   128  121  123 ar  
   129  121  130 1   
   130  122  124 ar  
   131  122  131 1   
   132  123  124 ar  
   133  123  132 1   
   134  124  133 1   
   135  134  135 1   
   136  134  140 1   
   137  135  136 1   
   138  135  138 1   
   139  135  141 1   
   140  136  137 2   
   141  136  148 1   
   142  138  139 1   
   143  138  142 1   
   144  138  143 1   
   145  139  140 1   
   146  139  144 1   
   147  139  145 1   
   148  140  146 1   
   149  140  147 1   
   150  148  149 1   
   151  148  157 1   
   152  149  150 1   
   153  149  152 1   
   154  149  158 1   
   155  150  151 2   
   156  150  163 1   
   157  152  153 1   
   158  152  159 1   
   159  152  160 1   
   160  153  154 1   
   161  153  161 1   
   162  153  162 1   
   163  154  155 1   
   164  154  156 1   
   165  163  164 1   
   166  163  168 1   
   167  164  165 1   
   168  164  166 1   
   169  164  167 1   
   170  170  171 1   
   171  170  172 1   
   172  173  174 1   
   173  173  175 1   
   174  176  177 1   
   175  176  178 1   
   176  179  180 1   
   177  179  181 1   
@<TRIPOS>SUBSTRUCTURE
     1 MOL         1 TEMP              0 ****  ****    0 ROOT
