@<TRIPOS>MOLECULE
MOL
  179   176     1     0     0
SMALL
resp


@<TRIPOS>ATOM
      1 C1          1.1950   -4.1040    5.8720 c3        1 MOL     -0.426135
      2 C2          1.3460   -3.9900    4.3180 c         1 MOL      0.758597
      3 O1          0.4990   -4.5570    3.5820 o         1 MOL     -0.629714
      4 H1          1.0740   -5.1510    6.1500 hc        1 MOL      0.119917
      5 H2          2.0860   -3.7010    6.3540 hc        1 MOL      0.119917
      6 H3          0.3200   -3.5400    6.1950 hc        1 MOL      0.119917
      7 N1          2.4520   -3.3720    3.9140 n         1 MOL     -0.548667
      8 C3          2.5700   -3.0660    2.5060 c3        1 MOL      0.090263
      9 C4          2.8740   -4.2140    1.5680 c         1 MOL      0.680339
     10 O2          3.6410   -5.0780    1.9710 o         1 MOL     -0.564025
     11 C5          3.6420   -1.9810    2.4500 c3        1 MOL     -0.156704
     12 C6          3.8200   -1.2600    1.1500 c         1 MOL      0.552823
     13 O3          4.4550   -0.1330    1.0300 o         1 MOL     -0.698582
     14 O4          3.3560   -1.7600    0.1350 o         1 MOL     -0.698582
     15 H4          2.9170   -2.7660    4.5700 hn        1 MOL      0.314386
     16 H5          1.6550   -2.5490    2.2460 h1        1 MOL     -0.179605
     17 H6          4.6090   -2.4540    2.6410 hc        1 MOL      0.083185
     18 H7          3.3180   -1.1920    3.1290 hc        1 MOL      0.083185
     19 N2          2.4040   -4.2170    0.3190 n         1 MOL     -0.350430
     20 C7          2.5510   -5.3440   -0.6010 c3        1 MOL     -0.181604
     21 C8          3.7340   -5.1640   -1.5530 c         1 MOL      0.587655
     22 O5          4.2250   -6.1090   -2.1390 o         1 MOL     -0.547847
     23 C9          1.2000   -5.3560   -1.3590 c3        1 MOL      0.002336
     24 C10         0.1800   -6.1020   -0.4780 c3        1 MOL     -0.042265
     25 C11        -1.1790   -5.9510   -1.1680 c3        1 MOL      0.057053
     26 C12        -2.2660   -6.9370   -0.6680 c3        1 MOL     -0.107403
     27 N3         -2.9650   -6.5080    0.5500 n4        1 MOL     -0.337781
     28 H8          1.8320   -3.4590   -0.0230 hn        1 MOL      0.302051
     29 H9          2.6700   -6.2610   -0.0290 h1        1 MOL      0.129635
     30 H10         1.3590   -5.8550   -2.3100 hc        1 MOL      0.049485
     31 H11         0.9670   -4.3350   -1.6340 hc        1 MOL      0.049485
     32 H12         0.2410   -5.6600    0.5220 hc        1 MOL      0.026531
     33 H13         0.4720   -7.1600   -0.4780 hc        1 MOL      0.026531
     34 H14        -1.0570   -6.0280   -2.2490 hc        1 MOL      0.006404
     35 H15        -1.5290   -4.9310   -0.9990 hc        1 MOL      0.006404
     36 H16        -1.7520   -7.8920   -0.5280 hx        1 MOL      0.123991
     37 H17        -2.9930   -7.1160   -1.4620 hx        1 MOL      0.123991
     38 H18        -3.4590   -5.6280    0.5470 hn        1 MOL      0.305252
     39 H19        -3.6760   -7.1710    0.8040 hn        1 MOL      0.305252
     40 H20        -2.1970   -6.4870    1.2060 hn        1 MOL      0.305252
     41 N4          4.2190   -3.9110   -1.7010 n         1 MOL     -0.486892
     42 C13         5.3500   -3.4770   -2.5840 c3        1 MOL      0.175870
     43 C14         6.5830   -2.8970   -1.7910 c         1 MOL      0.373904
     44 O6          7.6910   -3.1010   -2.3510 o         1 MOL     -0.508834
     45 C15         4.8210   -2.6220   -3.6520 c3        1 MOL     -0.143362
     46 C16         4.1780   -1.3080   -3.1020 c         1 MOL      0.745225
     47 O7          2.9530   -1.1530   -3.0890 o         1 MOL     -0.797007
     48 O8          4.8490   -0.4720   -2.4660 o         1 MOL     -0.797007
     49 H21         3.7470   -3.2280   -1.1370 hn        1 MOL      0.295847
     50 H22         5.6960   -4.3810   -3.0920 h1        1 MOL      0.071161
     51 H23         4.0780   -3.1400   -4.2540 hc        1 MOL      0.042601
     52 H24         5.6600   -2.3550   -4.3040 hc        1 MOL      0.042601
     53 N5          6.3320   -2.3550   -0.5880 n         1 MOL     -0.171565
     54 C17         7.3880   -1.8280    0.3060 c3        1 MOL     -0.261633
     55 C18         7.7970   -0.3140    0.0450 c         1 MOL      0.451763
     56 O9          8.8740    0.1180    0.5150 o         1 MOL     -0.502183
     57 H25         5.3930   -2.2700   -0.2390 hn        1 MOL      0.174327
     58 H26         8.3190   -2.3650    0.1570 h1        1 MOL      0.145950
     59 H27         7.0900   -1.9980    1.3410 h1        1 MOL      0.145950
     60 N6          6.9320    0.4530   -0.7010 n         1 MOL     -0.119461
     61 C19         7.1110    1.8900   -0.9030 c3        1 MOL      0.027222
     62 C20         5.8610    2.7090   -0.6440 c         1 MOL      0.661423
     63 O10         4.7800    2.1680   -0.8970 o         1 MOL     -0.622485
     64 C21         7.6650    2.2550   -2.3140 c3        1 MOL     -0.284518
     65 C22         8.9190    1.5980   -2.5640 c         1 MOL      0.743402
     66 N7          9.1240    0.7700   -3.5690 n         1 MOL     -0.879495
     67 O11         9.8420    1.8620   -1.8220 o         1 MOL     -0.563978
     68 H28         6.2080   -0.0400   -1.2120 hn        1 MOL      0.231910
     69 H29         7.7640    2.2770   -0.1190 h1        1 MOL      0.018794
     70 H30         7.9230    3.3160   -2.2860 hc        1 MOL      0.060274
     71 H31         6.9280    1.9790   -3.0820 hc        1 MOL      0.060274
     72 H32         8.4040    0.3980   -4.1790 hn        1 MOL      0.394699
     73 H33        10.0760    0.4370   -3.6600 hn        1 MOL      0.394699
     74 N8          6.1010    3.9800   -0.2290 n         1 MOL     -0.521142
     75 C23         4.9670    4.9300   -0.2520 c3        1 MOL     -0.083519
     76 C24         3.8690    4.6320    0.7140 c         1 MOL      0.673816
     77 O12         4.1380    4.6060    1.9510 o         1 MOL     -0.524179
     78 H34         7.0640    4.3000   -0.3120 hn        1 MOL      0.383696
     79 H35         4.5310    5.0370   -1.2550 h1        1 MOL      0.080325
     80 H36         5.4250    5.8800   -0.0010 h1        1 MOL      0.080325
     81 N9          2.6290    4.7480    0.2260 n         1 MOL     -0.758401
     82 C25         1.4000    4.5710    1.0350 c3        1 MOL      0.355549
     83 C26         1.1480    3.0990    1.2640 c         1 MOL      0.503613
     84 O13         2.0000    2.2400    0.9300 o         1 MOL     -0.480612
     85 C27         0.1590    5.2040    0.2810 c3        1 MOL     -0.138749
     86 C28         0.2370    6.7450    0.0750 ca        1 MOL      0.039050
     87 C29         0.1220    7.3560   -1.1790 ca        1 MOL     -0.161965
     88 C30         0.4030    7.4940    1.2430 ca        1 MOL     -0.161965
     89 C31         0.2120    8.7290   -1.2840 ca        1 MOL     -0.211950
     90 C32         0.5160    8.8890    1.1690 ca        1 MOL     -0.211950
     91 C33         0.3810    9.5250   -0.0880 ca        1 MOL      0.284610
     92 O14         0.4590   10.8920   -0.1020 oh        1 MOL     -0.459010
     93 H37         2.4840    4.8730   -0.7670 hn        1 MOL      0.355762
     94 H38         1.5070    5.0680    1.9940 h1        1 MOL      0.063564
     95 H39        -0.7220    4.9150    0.8510 hc        1 MOL      0.039697
     96 H40         0.0140    4.7250   -0.6820 hc        1 MOL      0.039697
     97 H41         0.0860    6.6720   -2.0110 ha        1 MOL      0.123013
     98 H42         0.5860    7.0300    2.2110 ha        1 MOL      0.123013
     99 H43         0.1380    9.1890   -2.2640 ha        1 MOL      0.150063
    100 H44         0.6500    9.5650    1.9980 ha        1 MOL      0.150063
    101 H45         0.5940   11.2860   -0.9630 ho        1 MOL      0.367090
    102 N10         0.1000    2.7710    2.0550 n         1 MOL     -0.657919
    103 C34        -0.1380    1.4280    2.5990 c3        1 MOL      0.099499
    104 C35        -0.3060    0.3300    1.5940 c         1 MOL      0.564841
    105 O15         0.5420    0.0620    0.7480 o         1 MOL     -0.476801
    106 C36         0.8830    1.0300    3.7530 c3        1 MOL      0.449776
    107 C37         0.5330   -0.2200    4.5840 c3        1 MOL     -0.012537
    108 C38         1.2260    2.2190    4.6230 c3        1 MOL     -0.302942
    109 C39        -0.7380   -0.0710    5.3980 c3        1 MOL     -0.296285
    110 H46        -0.3740    3.5750    2.4410 hn        1 MOL      0.327070
    111 H47        -1.0930    1.5020    3.1290 h1        1 MOL      0.022269
    112 H48         1.8490    0.8570    3.2710 hc        1 MOL     -0.043233
    113 H49         1.3870   -0.2620    5.2710 hc        1 MOL      0.021851
    114 H50         0.3840   -1.1240    3.9900 hc        1 MOL      0.021851
    115 H51         0.2480    2.5640    4.9430 hc        1 MOL      0.058880
    116 H52         1.8080    1.8730    5.4710 hc        1 MOL      0.058880
    117 H53         1.7220    3.0220    4.0530 hc        1 MOL      0.058880
    118 H54        -0.8600   -0.9740    6.0010 hc        1 MOL      0.072798
    119 H55        -0.6580    0.8500    5.9760 hc        1 MOL      0.072798
    120 H56        -1.6330   -0.0700    4.7720 hc        1 MOL      0.072798
    121 N11        -1.4880   -0.3380    1.7350 n         1 MOL     -0.632586
    122 C40        -2.0140   -1.3620    0.8110 c3        1 MOL      0.291841
    123 C41        -3.5190   -1.2710    0.7280 c         1 MOL      0.528519
    124 O16        -4.2290   -1.6960    1.6090 o         1 MOL     -0.519933
    125 C42        -1.7770   -2.7420    1.4510 c3        1 MOL     -0.126420
    126 O17        -0.4380   -3.1760    1.3340 oh        1 MOL     -0.509784
    127 H57        -2.1510    0.0020    2.4190 hn        1 MOL      0.319370
    128 H58        -1.7180   -1.2470   -0.2310 h1        1 MOL      0.059951
    129 H59        -2.3460   -3.5590    0.9920 h1        1 MOL      0.069801
    130 H60        -1.9860   -2.6550    2.5160 h1        1 MOL      0.069801
    131 H61        -0.2510   -3.6870    2.1250 ho        1 MOL      0.451535
    132 N12        -4.0770   -0.7990   -0.4590 n         1 MOL     -0.610744
    133 C43        -5.4430   -0.4500   -0.7000 c3        1 MOL      0.160600
    134 C44        -5.6150   -0.2180   -2.1640 c         1 MOL      0.642548
    135 O18        -4.6390    0.1230   -2.8900 o         1 MOL     -0.597107
    136 C45        -5.7470    0.7670    0.1630 c3        1 MOL     -0.280260
    137 H62        -3.4540   -0.5090   -1.1970 hn        1 MOL      0.232374
    138 H63        -6.0370   -1.2820   -0.3050 h1        1 MOL      0.094855
    139 H64        -5.5050    0.6610    1.2220 hc        1 MOL      0.086718
    140 H65        -5.3190    1.7030   -0.2000 hc        1 MOL      0.086718
    141 H66        -6.8080    1.0130    0.0710 hc        1 MOL      0.086718
    142 N13        -6.7930   -0.3610   -2.6910 n         1 MOL     -0.633492
    143 C46        -7.9600   -0.9270   -2.0730 c3        1 MOL      0.476474
    144 C47        -9.1180    0.0290   -2.2890 c         1 MOL      0.247564
    145 O19        -9.1780    0.6360   -3.3380 o         1 MOL     -0.529738
    146 C48        -8.2070   -2.3150   -2.5720 c3        1 MOL     -0.349208
    147 H67        -6.9260   -0.0680   -3.6440 hn        1 MOL      0.348345
    148 H68        -7.7080   -1.0300   -1.0140 h1        1 MOL     -0.048082
    149 H69        -8.6520   -2.8510   -1.7240 hc        1 MOL      0.091080
    150 H70        -8.9740   -2.3560   -3.3370 hc        1 MOL      0.091080
    151 H71        -7.2970   -2.8680   -2.8120 hc        1 MOL      0.091080
    152 N14       -10.0920    0.2390   -1.4880 n         1 MOL      0.026385
    153 C49       -10.2100   -0.2170   -0.0700 c3        1 MOL     -0.335851
    154 C50        -9.7530    0.8120    0.9390 c         1 MOL      0.557236
    155 O20        -9.7460    0.5420    2.1430 o         1 MOL     -0.549283
    156 C51       -11.6850   -0.6780    0.2070 c3        1 MOL     -0.026423
    157 C52       -12.8370    0.3530   -0.0340 c3        1 MOL     -0.179271
    158 C53       -13.5090    0.0980   -1.4110 c         1 MOL      0.661296
    159 O21       -14.4730   -0.6810   -1.4590 o         1 MOL     -0.653633
    160 O22       -13.0120    0.6590   -2.4280 o         1 MOL     -0.653633
    161 H72       -10.9080    0.7280   -1.8400 hn        1 MOL      0.152523
    162 H73        -9.6180   -1.1160    0.0310 h1        1 MOL      0.101624
    163 H74       -11.7960   -1.0390    1.2270 hc        1 MOL      0.059728
    164 H75       -11.8480   -1.5000   -0.4840 hc        1 MOL      0.059728
    165 H76       -12.4320    1.3610    0.0090 hc        1 MOL      0.039031
    166 H77       -13.4910    0.3720    0.8320 hc        1 MOL      0.039031
    167 N15        -9.2920    1.9910    0.5330 n         1 MOL     -0.188282
    168 C54        -8.6220    3.0450    1.3450 c3        1 MOL     -0.326578
    169 H78        -7.7470    3.4130    0.8100 h1        1 MOL      0.129631
    170 H79        -9.3170    3.8670    1.5160 h1        1 MOL      0.129631
    171 H80        -8.3130    2.6250    2.3020 h1        1 MOL      0.129631
    172 H81        -9.5820    2.2730   -0.3910 hn        1 MOL      0.198836
    173 Ca1         2.6990    0.4920   -1.1060 Ca        1 MOL      1.790452
    174 O23         0.9040    2.3860   -1.8810 oh        1 MOL     -0.902031
    175 H82        -0.0360    2.1920   -1.9050 ho        1 MOL      0.440171
    176 H83         1.0650    2.9030   -2.6670 ho        1 MOL      0.440171
    177 O24         0.2620   -0.5350   -2.0450 oh        1 MOL     -0.902031
    178 H84        -0.5130    0.0130   -2.1470 ho        1 MOL      0.440171
    179 H85         0.0810   -1.2980   -2.6010 ho        1 MOL      0.440171
@<TRIPOS>BOND
     1    1    2 1   
     2    1    4 1   
     3    1    5 1   
     4    1    6 1   
     5    2    3 2   
     6    2    7 1   
     7    7    8 1   
     8    7   15 1   
     9    8    9 1   
    10    8   11 1   
    11    8   16 1   
    12    9   10 2   
    13    9   19 1   
    14   11   12 1   
    15   11   17 1   
    16   11   18 1   
    17   12   13 1   
    18   12   14 1   
    19   19   20 1   
    20   19   28 1   
    21   20   21 1   
    22   20   23 1   
    23   20   29 1   
    24   21   22 2   
    25   21   41 1   
    26   23   24 1   
    27   23   30 1   
    28   23   31 1   
    29   24   25 1   
    30   24   32 1   
    31   24   33 1   
    32   25   26 1   
    33   25   34 1   
    34   25   35 1   
    35   26   27 1   
    36   26   36 1   
    37   26   37 1   
    38   27   38 1   
    39   27   39 1   
    40   27   40 1   
    41   41   42 1   
    42   41   49 1   
    43   42   43 1   
    44   42   45 1   
    45   42   50 1   
    46   43   44 2   
    47   43   53 1   
    48   45   46 1   
    49   45   51 1   
    50   45   52 1   
    51   46   47 1   
    52   46   48 1   
    53   53   54 1   
    54   53   57 1   
    55   54   55 1   
    56   54   58 1   
    57   54   59 1   
    58   55   56 2   
    59   55   60 1   
    60   60   61 1   
    61   60   68 1   
    62   61   62 1   
    63   61   64 1   
    64   61   69 1   
    65   62   63 2   
    66   62   74 1   
    67   64   65 1   
    68   64   70 1   
    69   64   71 1   
    70   65   66 1   
    71   65   67 2   
    72   66   72 1   
    73   66   73 1   
    74   74   75 1   
    75   74   78 1   
    76   75   76 1   
    77   75   79 1   
    78   75   80 1   
    79   76   77 2   
    80   76   81 1   
    81   81   82 1   
    82   81   93 1   
    83   82   83 1   
    84   82   85 1   
    85   82   94 1   
    86   83   84 2   
    87   83  102 1   
    88   85   86 1   
    89   85   95 1   
    90   85   96 1   
    91   86   87 ar  
    92   86   88 ar  
    93   87   89 ar  
    94   87   97 1   
    95   88   90 ar  
    96   88   98 1   
    97   89   91 ar  
    98   89   99 1   
    99   90   91 ar  
   100   90  100 1   
   101   91   92 1   
   102   92  101 1   
   103  102  103 1   
   104  102  110 1   
   105  103  104 1   
   106  103  106 1   
   107  103  111 1   
   108  104  105 2   
   109  104  121 1   
   110  106  107 1   
   111  106  108 1   
   112  106  112 1   
   113  107  109 1   
   114  107  113 1   
   115  107  114 1   
   116  108  115 1   
   117  108  116 1   
   118  108  117 1   
   119  109  118 1   
   120  109  119 1   
   121  109  120 1   
   122  121  122 1   
   123  121  127 1   
   124  122  123 1   
   125  122  125 1   
   126  122  128 1   
   127  123  124 2   
   128  123  132 1   
   129  125  126 1   
   130  125  129 1   
   131  125  130 1   
   132  126  131 1   
   133  132  133 1   
   134  132  137 1   
   135  133  134 1   
   136  133  136 1   
   137  133  138 1   
   138  134  135 2   
   139  134  142 1   
   140  136  139 1   
   141  136  140 1   
   142  136  141 1   
   143  142  143 1   
   144  142  147 1   
   145  143  144 1   
   146  143  146 1   
   147  143  148 1   
   148  144  145 2   
   149  144  152 1   
   150  146  149 1   
   151  146  150 1   
   152  146  151 1   
   153  152  153 1   
   154  152  161 1   
   155  153  154 1   
   156  153  156 1   
   157  153  162 1   
   158  154  155 2   
   159  154  167 1   
   160  156  157 1   
   161  156  163 1   
   162  156  164 1   
   163  157  158 1   
   164  157  165 1   
   165  157  166 1   
   166  158  159 1   
   167  158  160 1   
   168  167  168 1   
   169  167  172 1   
   170  168  169 1   
   171  168  170 1   
   172  168  171 1   
   173  174  175 1   
   174  174  176 1   
   175  177  178 1   
   176  177  179 1   
@<TRIPOS>SUBSTRUCTURE
     1 MOL         1 TEMP              0 ****  ****    0 ROOT
