@<TRIPOS>MOLECULE
MOL
  198   191     1     0     0
SMALL
resp


@<TRIPOS>ATOM
      1 C1         -0.0570   -4.2890    2.2430 c3        1 MOL     -0.446493
      2 C2          1.0160   -4.2750    1.1590 c         1 MOL      0.598105
      3 O1          1.7810   -3.2820    0.9970 o         1 MOL     -0.559307
      4 H1         -0.0100   -5.2310    2.7880 hc        1 MOL      0.086238
      5 H2          0.1110   -3.4610    2.9320 hc        1 MOL      0.086238
      6 H3         -1.0400   -4.1840    1.7830 hc        1 MOL      0.086238
      7 N1          1.1800   -5.3200    0.3480 n         1 MOL     -0.357309
      8 C3          1.9570   -5.3880   -0.8940 c3        1 MOL      0.072589
      9 C4          3.4380   -5.2590   -0.6930 c         1 MOL      0.749466
     10 O2          4.1660   -4.4850   -1.3360 o         1 MOL     -0.534595
     11 C5          1.3700   -4.4850   -2.0250 c3        1 MOL     -0.850720
     12 C6         -0.1330   -4.7700   -2.0990 c         1 MOL      0.805893
     13 O3         -0.5970   -5.7260   -2.7610 o         1 MOL     -0.627214
     14 O4         -0.9810   -3.9970   -1.6280 o         1 MOL     -0.627214
     15 H4          0.6380   -6.1410    0.5740 hn        1 MOL      0.266037
     16 H5          1.7920   -6.4040   -1.2460 h1        1 MOL      0.031257
     17 H6          1.8810   -4.6830   -2.9610 hc        1 MOL      0.253045
     18 H7          1.5060   -3.4420   -1.7630 hc        1 MOL      0.253045
     19 N2          3.8590   -5.8330    0.4290 n         1 MOL     -0.587623
     20 C7          5.1170   -5.4340    1.0020 c3        1 MOL      0.098218
     21 C8          6.3000   -6.1610    0.2290 c         1 MOL      0.437331
     22 O5          6.1610   -7.2540   -0.3060 o         1 MOL     -0.567186
     23 C9          5.2110   -5.6700    2.5330 c3        1 MOL      0.250939
     24 C10         4.2360   -4.8060    3.2730 c3        1 MOL     -0.029190
     25 C11         6.6720   -5.5590    3.0330 c3        1 MOL     -0.560913
     26 C12         4.1540   -5.0680    4.7800 c3        1 MOL     -0.309888
     27 H8          3.2580   -6.5290    0.8430 hn        1 MOL      0.239516
     28 H9          5.2420   -4.3640    0.8880 h1        1 MOL      0.085387
     29 H10         4.8730   -6.6800    2.7500 hc        1 MOL     -0.037677
     30 H11         3.2710   -5.0470    2.8160 hc        1 MOL      0.080460
     31 H12         4.4500   -3.7750    3.0290 hc        1 MOL      0.080460
     32 H13         6.7310   -5.6190    4.1200 hc        1 MOL      0.146308
     33 H14         7.2310   -6.4400    2.7180 hc        1 MOL      0.146308
     34 H15         7.1940   -4.6520    2.7230 hc        1 MOL      0.146308
     35 H16         3.2340   -4.6820    5.2270 hc        1 MOL      0.064604
     36 H17         4.1200   -6.1340    4.9930 hc        1 MOL      0.064604
     37 H18         5.0390   -4.6570    5.2700 hc        1 MOL      0.064604
     38 N3          7.4170   -5.4900   -0.0470 n         1 MOL     -0.402543
     39 C13         7.7880   -4.1180   -0.0080 c3        1 MOL      0.073165
     40 C14         7.7140   -3.4790   -1.4340 c         1 MOL      0.654435
     41 O6          7.7820   -4.1730   -2.4750 o         1 MOL     -0.597127
     42 C15         9.2060   -3.9680    0.6290 c3        1 MOL     -0.181193
     43 C16         9.5300   -2.5190    1.0380 c         1 MOL      0.711899
     44 O7         10.6870   -2.2950    1.5360 o         1 MOL     -0.688722
     45 O8          8.6410   -1.6400    1.0290 o         1 MOL     -0.688722
     46 H19         8.0100   -6.0900   -0.6030 hn        1 MOL      0.274102
     47 H20         7.1130   -3.5640    0.6530 h1        1 MOL     -0.005466
     48 H21         9.9680   -4.1540   -0.1310 hc        1 MOL      0.014640
     49 H22         9.3330   -4.6380    1.4800 hc        1 MOL      0.014640
     50 N4          7.7130   -2.1870   -1.4980 n         1 MOL     -0.385249
     51 C17         7.3060   -1.4770   -2.6820 c3        1 MOL     -0.170234
     52 C18         7.5670    0.0430   -2.5160 c         1 MOL      0.579560
     53 O9          8.6670    0.5430   -2.3580 o         1 MOL     -0.523206
     54 H23         7.7170   -1.6510   -0.6350 hn        1 MOL      0.279427
     55 H24         6.2620   -1.6440   -2.9370 h1        1 MOL      0.100651
     56 H25         7.9270   -1.8020   -3.5130 h1        1 MOL      0.100651
     57 N5          6.4620    0.9030   -2.6740 n         1 MOL     -0.575540
     58 C19         6.5850    2.3190   -3.0620 c3        1 MOL      0.219956
     59 C20         6.8950    3.2260   -1.8420 c         1 MOL      0.470383
     60 O10         7.1980    4.4070   -2.0920 o         1 MOL     -0.583603
     61 C21         5.3380    2.7860   -3.8370 c3        1 MOL     -0.316431
     62 C22         4.0640    2.7570   -3.0560 c         1 MOL      0.725814
     63 O11         3.2540    1.8090   -3.2060 o         1 MOL     -0.695105
     64 O12         3.9660    3.4000   -2.0130 o         1 MOL     -0.695105
     65 H26         5.5600    0.4850   -2.8500 hn        1 MOL      0.305998
     66 H27         7.4680    2.5760   -3.6580 h1        1 MOL      0.043653
     67 H28         5.1890    2.1150   -4.6750 hc        1 MOL      0.057826
     68 H29         5.5810    3.7640   -4.2680 hc        1 MOL      0.057826
     69 N6          6.6940    2.7540   -0.6050 n         1 MOL     -0.260711
     70 C23         7.0640    3.5110    0.6040 c3        1 MOL     -0.142672
     71 C24         6.0560    4.5980    0.9410 c         1 MOL      0.491954
     72 O13         5.9790    5.0620    2.0480 o         1 MOL     -0.609944
     73 H30         6.2300    1.8790   -0.4240 hn        1 MOL      0.279016
     74 H31         8.0490    3.9440    0.4270 h1        1 MOL      0.105142
     75 H32         7.1900    2.9330    1.5130 h1        1 MOL      0.105142
     76 N7          5.1400    4.9780    0.0940 n         1 MOL     -0.140051
     77 C25         4.0580    5.9340    0.3460 c3        1 MOL      0.110381
     78 C26         3.2580    5.6310    1.7090 c         1 MOL      0.418643
     79 O14         2.8810    6.6460    2.3400 o         1 MOL     -0.529133
     80 C27         4.5640    7.4030    0.0550 c3        1 MOL      0.055597
     81 C28         5.1780    7.6950   -1.3060 c3        1 MOL     -0.238965
     82 C29         5.1900    9.1550   -1.6020 c         1 MOL      0.690159
     83 N8          5.9720    9.5800   -2.6050 n         1 MOL     -0.825038
     84 O15         4.4740   10.0020   -1.0740 o         1 MOL     -0.569585
     85 H33         5.1030    4.3730   -0.7160 hn        1 MOL      0.103821
     86 H34         3.2690    5.7300   -0.3770 h1        1 MOL      0.055742
     87 H35         5.2870    7.7210    0.8140 hc        1 MOL      0.004880
     88 H36         3.7360    8.0720    0.2650 hc        1 MOL      0.004880
     89 H37         4.5340    7.2060   -2.0250 hc        1 MOL      0.086324
     90 H38         6.1940    7.3030   -1.2640 hc        1 MOL      0.086324
     91 H39         6.5830    8.9460   -3.0900 hn        1 MOL      0.348718
     92 H40         6.0420   10.5740   -2.7580 hn        1 MOL      0.348718
     93 N9          2.9470    4.3880    2.1020 n         1 MOL     -0.357679
     94 C30         2.0510    4.0880    3.2380 c3        1 MOL     -0.055465
     95 C31         0.9530    3.0840    2.8350 c         1 MOL      0.539711
     96 O16         0.1690    2.7480    3.7380 o         1 MOL     -0.568018
     97 C32         2.8570    3.5600    4.4720 c3        1 MOL      0.400502
     98 C33         3.6870    2.3880    4.0920 c3        1 MOL     -0.445216
     99 C34         3.6920    4.6510    5.0740 c3        1 MOL     -0.445216
    100 H41         3.4610    3.6440    1.6450 hn        1 MOL      0.257557
    101 H42         1.5420    4.9740    3.5920 h1        1 MOL      0.099810
    102 H43         2.0800    3.2800    5.1860 hc        1 MOL     -0.054418
    103 H44         4.3520    2.6450    3.2720 hc        1 MOL      0.105186
    104 H45         4.2800    2.0260    4.9340 hc        1 MOL      0.105186
    105 H46         2.9930    1.6620    3.6720 hc        1 MOL      0.105186
    106 H47         4.4870    4.9910    4.4140 hc        1 MOL      0.105186
    107 H48         2.9990    5.4460    5.3520 hc        1 MOL      0.105186
    108 H49         4.1830    4.3620    5.9970 hc        1 MOL      0.105186
    109 N10         0.9220    2.5320    1.6040 n         1 MOL     -0.454634
    110 C35        -0.0160    1.4730    1.2390 c3        1 MOL      0.276838
    111 C36        -1.2350    2.0070    0.4240 c         1 MOL      0.567824
    112 O17        -1.0610    2.9580   -0.3390 o         1 MOL     -0.529882
    113 C37         0.7000    0.3320    0.5140 c3        1 MOL     -0.069551
    114 C38        -0.1560   -0.8170    0.1420 c         1 MOL      0.615507
    115 N11         0.0490   -1.3340   -1.0520 n         1 MOL     -0.835103
    116 O18        -0.9530   -1.3040    0.8820 o         1 MOL     -0.488312
    117 H50         1.5790    2.8560    0.8970 hn        1 MOL      0.233209
    118 H51        -0.3980    1.0060    2.1440 h1        1 MOL     -0.031516
    119 H52         1.4780   -0.1270    1.1220 hc        1 MOL      0.043533
    120 H53         1.1060    0.7720   -0.4000 hc        1 MOL      0.043533
    121 H54         0.7530   -1.0230   -1.7060 hn        1 MOL      0.388396
    122 H55        -0.4630   -2.1860   -1.2520 hn        1 MOL      0.388396
    123 N12        -2.4340    1.4320    0.5650 n         1 MOL     -0.697517
    124 C39        -3.5100    1.7350   -0.3330 c3        1 MOL      0.291255
    125 C40        -4.9290    1.6500    0.2690 c         1 MOL      0.438011
    126 O19        -5.3250    0.6050    0.8010 o         1 MOL     -0.451073
    127 C41        -3.3690    0.8260   -1.5480 c3        1 MOL     -0.506698
    128 C42        -4.5810    0.8690   -2.5300 ca        1 MOL      0.004556
    129 C43        -4.7750    1.9900   -3.2900 ca        1 MOL     -0.065702
    130 C44        -5.3670   -0.3390   -2.5820 ca        1 MOL     -0.065702
    131 C45        -5.9900    1.9780   -4.0580 ca        1 MOL     -0.267540
    132 C46        -6.4460   -0.3510   -3.4390 ca        1 MOL     -0.267540
    133 C47        -6.7760    0.7990   -4.1690 ca        1 MOL      0.330309
    134 O20        -7.9080    0.8260   -4.9000 oh        1 MOL     -0.533324
    135 H56        -2.6120    0.8170    1.3450 hn        1 MOL      0.375518
    136 H57        -3.4600    2.7870   -0.6240 h1        1 MOL      0.070662
    137 H58        -3.1060   -0.1810   -1.2220 hc        1 MOL      0.192150
    138 H59        -2.4630    1.0910   -2.0910 hc        1 MOL      0.192150
    139 H60        -4.1860    2.8880   -3.1800 ha        1 MOL      0.121044
    140 H61        -5.1840   -1.1510   -1.9060 ha        1 MOL      0.121044
    141 H62        -6.3390    2.8890   -4.5160 ha        1 MOL      0.119449
    142 H63        -7.0360   -1.2490   -3.5110 ha        1 MOL      0.119449
    143 H64        -8.2870    1.6780   -5.1390 ho        1 MOL      0.380636
    144 N13        -5.7160    2.6840    0.0270 n         1 MOL     -0.587033
    145 C48        -7.0730    2.7900    0.3990 c3        1 MOL      0.371114
    146 C49        -8.0170    2.6850   -0.9110 c         1 MOL      0.554585
    147 O21        -8.1370    3.6640   -1.7130 o         1 MOL     -0.564064
    148 C50        -7.2380    4.1930    0.9890 c3        1 MOL     -0.001431
    149 C51        -8.6860    4.2220    1.4750 c3        1 MOL     -0.146930
    150 C52        -9.0450    5.3300    2.3730 c         1 MOL      0.745570
    151 O22        -9.0110    6.5530    2.1080 o         1 MOL     -0.667112
    152 O23        -9.3980    5.0030    3.4830 o         1 MOL     -0.667112
    153 H65        -5.4030    3.4290   -0.5650 hn        1 MOL      0.284352
    154 H66        -7.4140    2.0400    1.1080 h1        1 MOL     -0.023901
    155 H67        -7.1860    4.9780    0.2350 hc        1 MOL      0.001419
    156 H68        -6.5800    4.3270    1.8510 hc        1 MOL      0.001419
    157 H69        -8.8770    3.2280    1.8640 hc        1 MOL      0.010727
    158 H70        -9.3500    4.3730    0.6200 hc        1 MOL      0.010727
    159 N14        -8.7950    1.6080   -1.0950 n         1 MOL     -0.506849
    160 C53        -8.5450    0.2410   -0.5470 c3        1 MOL     -0.106006
    161 C54        -8.9180    0.1230    0.8980 c         1 MOL      0.445653
    162 O24       -10.0000    0.4860    1.1310 o         1 MOL     -0.545220
    163 C55        -9.3320   -0.6950   -1.4000 c3        1 MOL      0.325148
    164 C56        -9.3200   -2.2170   -1.0620 c3        1 MOL     -0.515821
    165 C57        -7.9530   -2.8720   -1.1770 c         1 MOL      0.661868
    166 O25        -7.1520   -2.8430   -0.2420 o         1 MOL     -0.550397
    167 O26        -7.6930   -3.4770   -2.2140 o         1 MOL     -0.550397
    168 H71        -9.5620    1.7540   -1.7390 hn        1 MOL      0.292517
    169 H72        -7.4960   -0.0410   -0.6380 h1        1 MOL      0.137053
    170 H73        -8.9880   -0.6330   -2.4320 hc        1 MOL     -0.024675
    171 H74       -10.3890   -0.4070   -1.4250 hc        1 MOL     -0.024675
    172 H75       -10.0880   -2.7290   -1.6530 hc        1 MOL      0.085974
    173 H76        -9.5550   -2.2420   -0.0060 hc        1 MOL      0.085974
    174 N15        -7.9960   -0.2800    1.7600 n         1 MOL     -0.061963
    175 C58        -8.1390   -0.4350    3.2820 c3        1 MOL     -0.111701
    176 H77        -8.4270   -1.4590    3.5170 h1        1 MOL      0.069273
    177 H78        -7.1870   -0.2060    3.7620 h1        1 MOL      0.069273
    178 H79        -8.9050    0.2500    3.6470 h1        1 MOL      0.069273
    179 H80        -7.0810   -0.4180    1.3700 hn        1 MOL      0.094070
    180 Ca1        -5.2510   -4.3220    0.7860 Ca        1 MOL      1.480138
    181 O27        -2.8740   -2.8500   -0.2190 oh        1 MOL     -0.754589
    182 H81        -2.4350   -2.4330    0.5240 ho        1 MOL      0.340087
    183 H82        -2.1640   -3.2850   -0.6960 ho        1 MOL      0.340087
    184 O28        -4.6720   -2.2020    2.5400 oh        1 MOL     -0.754589
    185 H83        -4.0250   -1.5660    2.2510 ho        1 MOL      0.340087
    186 H84        -4.7320   -2.0650    3.4850 ho        1 MOL      0.340087
    187 O29        -7.0630   -6.0490    0.4210 oh        1 MOL     -0.754589
    188 H85        -7.1200   -6.4800    1.2680 ho        1 MOL      0.340087
    189 H86        -6.9870   -6.7580   -0.2140 ho        1 MOL      0.340087
    190 O30        -5.0820   -3.8590   -1.8250 oh        1 MOL     -0.754589
    191 H87        -5.8800   -3.7360   -2.3380 ho        1 MOL      0.340087
    192 H88        -4.4320   -4.1720   -2.4580 ho        1 MOL      0.340087
    193 O31        -7.3420   -3.7780    2.4880 oh        1 MOL     -0.754589
    194 H89        -7.2250   -4.3500    3.2450 ho        1 MOL      0.340087
    195 H90        -7.9090   -4.2710    1.8990 ho        1 MOL      0.340087
    196 O32        -3.9100   -6.2440   -0.5530 oh        1 MOL     -0.754589
    197 H91        -3.0530   -6.6460   -0.4390 ho        1 MOL      0.340087
    198 H92        -4.2070   -6.5780   -1.4070 ho        1 MOL      0.340087
@<TRIPOS>BOND
     1    1    2 1   
     2    1    4 1   
     3    1    5 1   
     4    1    6 1   
     5    2    3 2   
     6    2    7 1   
     7    7    8 1   
     8    7   15 1   
     9    8    9 1   
    10    8   11 1   
    11    8   16 1   
    12    9   10 2   
    13    9   19 1   
    14   11   12 1   
    15   11   17 1   
    16   11   18 1   
    17   12   13 1   
    18   12   14 1   
    19   19   20 1   
    20   19   27 1   
    21   20   21 1   
    22   20   23 1   
    23   20   28 1   
    24   21   22 2   
    25   21   38 1   
    26   23   24 1   
    27   23   25 1   
    28   23   29 1   
    29   24   26 1   
    30   24   30 1   
    31   24   31 1   
    32   25   32 1   
    33   25   33 1   
    34   25   34 1   
    35   26   35 1   
    36   26   36 1   
    37   26   37 1   
    38   38   39 1   
    39   38   46 1   
    40   39   40 1   
    41   39   42 1   
    42   39   47 1   
    43   40   41 2   
    44   40   50 1   
    45   42   43 1   
    46   42   48 1   
    47   42   49 1   
    48   43   44 1   
    49   43   45 1   
    50   50   51 1   
    51   50   54 1   
    52   51   52 1   
    53   51   55 1   
    54   51   56 1   
    55   52   53 2   
    56   52   57 1   
    57   57   58 1   
    58   57   65 1   
    59   58   59 1   
    60   58   61 1   
    61   58   66 1   
    62   59   60 2   
    63   59   69 1   
    64   61   62 1   
    65   61   67 1   
    66   61   68 1   
    67   62   63 1   
    68   62   64 1   
    69   69   70 1   
    70   69   73 1   
    71   70   71 1   
    72   70   74 1   
    73   70   75 1   
    74   71   72 2   
    75   71   76 1   
    76   76   77 1   
    77   76   85 1   
    78   77   78 1   
    79   77   80 1   
    80   77   86 1   
    81   78   79 2   
    82   78   93 1   
    83   80   81 1   
    84   80   87 1   
    85   80   88 1   
    86   81   82 1   
    87   81   89 1   
    88   81   90 1   
    89   82   83 1   
    90   82   84 2   
    91   83   91 1   
    92   83   92 1   
    93   93   94 1   
    94   93  100 1   
    95   94   95 1   
    96   94   97 1   
    97   94  101 1   
    98   95   96 2   
    99   95  109 1   
   100   97   98 1   
   101   97   99 1   
   102   97  102 1   
   103   98  103 1   
   104   98  104 1   
   105   98  105 1   
   106   99  106 1   
   107   99  107 1   
   108   99  108 1   
   109  109  110 1   
   110  109  117 1   
   111  110  111 1   
   112  110  113 1   
   113  110  118 1   
   114  111  112 2   
   115  111  123 1   
   116  113  114 1   
   117  113  119 1   
   118  113  120 1   
   119  114  115 1   
   120  114  116 2   
   121  115  121 1   
   122  115  122 1   
   123  123  124 1   
   124  123  135 1   
   125  124  125 1   
   126  124  127 1   
   127  124  136 1   
   128  125  126 2   
   129  125  144 1   
   130  127  128 1   
   131  127  137 1   
   132  127  138 1   
   133  128  129 ar  
   134  128  130 ar  
   135  129  131 ar  
   136  129  139 1   
   137  130  132 ar  
   138  130  140 1   
   139  131  133 ar  
   140  131  141 1   
   141  132  133 ar  
   142  132  142 1   
   143  133  134 1   
   144  134  143 1   
   145  144  145 1   
   146  144  153 1   
   147  145  146 1   
   148  145  148 1   
   149  145  154 1   
   150  146  147 2   
   151  146  159 1   
   152  148  149 1   
   153  148  155 1   
   154  148  156 1   
   155  149  150 1   
   156  149  157 1   
   157  149  158 1   
   158  150  151 1   
   159  150  152 1   
   160  159  160 1   
   161  159  168 1   
   162  160  161 1   
   163  160  163 1   
   164  160  169 1   
   165  161  162 2   
   166  161  174 1   
   167  163  164 1   
   168  163  170 1   
   169  163  171 1   
   170  164  165 1   
   171  164  172 1   
   172  164  173 1   
   173  165  166 1   
   174  165  167 1   
   175  174  175 1   
   176  174  179 1   
   177  175  176 1   
   178  175  177 1   
   179  175  178 1   
   180  181  182 1   
   181  181  183 1   
   182  184  185 1   
   183  184  186 1   
   184  187  188 1   
   185  187  189 1   
   186  190  191 1   
   187  190  192 1   
   188  193  194 1   
   189  193  195 1   
   190  196  197 1   
   191  196  198 1   
@<TRIPOS>SUBSTRUCTURE
     1 MOL         1 TEMP              0 ****  ****    0 ROOT
