@<TRIPOS>MOLECULE
MOL
  185   180     1     0     0
SMALL
resp


@<TRIPOS>ATOM
      1 C1         -5.8020    0.9890   -3.6190 c3        1 MOL     -0.507468
      2 C2         -6.4290    1.0800   -2.2290 c         1 MOL      0.611379
      3 O1         -5.8080    0.9890   -1.1760 o         1 MOL     -0.400809
      4 H1         -4.7450    1.2480   -3.5580 hc        1 MOL      0.141420
      5 H2         -5.9060   -0.0280   -3.9990 hc        1 MOL      0.141420
      6 H3         -6.3070    1.6820   -4.2910 hc        1 MOL      0.141420
      7 N1         -7.7880    1.2640   -2.1830 n         1 MOL     -0.561797
      8 C3         -8.5430    1.3500   -0.8820 c3        1 MOL      0.115337
      9 C4         -8.4550    0.1390   -0.0000 c         1 MOL      0.502718
     10 O2         -8.6540    0.1540    1.2010 o         1 MOL     -0.510640
     11 C5         -8.2280    2.6010   -0.1120 c3        1 MOL     -0.156299
     12 C6         -8.2800    3.9030   -0.8570 c         1 MOL      0.746206
     13 O3         -7.7460    4.8620   -0.2500 o         1 MOL     -0.694893
     14 O4         -9.0060    4.0200   -1.9310 o         1 MOL     -0.694893
     15 H4         -8.3110    1.3410   -3.0350 hn        1 MOL      0.307187
     16 H5         -9.5960    1.4600   -1.1490 h1        1 MOL      0.052694
     17 H6         -7.1940    2.4660    0.2260 hc        1 MOL      0.049167
     18 H7         -8.9270    2.6900    0.7110 hc        1 MOL      0.049167
     19 N2         -8.2210   -1.0130   -0.6410 n         1 MOL     -0.531940
     20 C7         -8.0120   -2.1980    0.1430 c3        1 MOL      0.249295
     21 C8         -6.5240   -2.5460    0.5270 c         1 MOL      0.442627
     22 O5         -6.2670   -3.5030    1.2530 o         1 MOL     -0.572878
     23 C9         -8.5950   -3.3670   -0.5620 c3        1 MOL     -0.279530
     24 C10       -10.1210   -3.3800   -0.3440 c3        1 MOL      0.294146
     25 C11       -10.7810   -4.6580   -0.9740 c3        1 MOL     -0.136512
     26 C12       -10.7430   -4.4340   -2.4980 c3        1 MOL      0.130838
     27 N3        -11.4690   -5.5580   -3.1760 n4        1 MOL     -0.380276
     28 H8         -8.0830   -1.0090   -1.6330 hn        1 MOL      0.252194
     29 H9         -8.5830   -2.2410    1.0710 h1        1 MOL      0.077517
     30 H10        -8.2620   -4.2930   -0.0840 hc        1 MOL      0.067369
     31 H11        -8.2580   -3.3150   -1.5910 hc        1 MOL      0.067369
     32 H12       -10.5230   -2.5510   -0.9220 hc        1 MOL     -0.033501
     33 H13       -10.4560   -3.3200    0.6960 hc        1 MOL     -0.033501
     34 H14       -11.8200   -4.6520   -0.6330 hc        1 MOL      0.043767
     35 H15       -10.2680   -5.5560   -0.6470 hc        1 MOL      0.043767
     36 H16        -9.6970   -4.2960   -2.7870 hx        1 MOL      0.043375
     37 H17       -11.3200   -3.5170   -2.6380 hx        1 MOL      0.043375
     38 H18       -10.9780   -6.3860   -2.8620 hn        1 MOL      0.313868
     39 H19       -12.4240   -5.6570   -2.8620 hn        1 MOL      0.313868
     40 H20       -11.4760   -5.4610   -4.1840 hn        1 MOL      0.313868
     41 N4         -5.4950   -1.6730    0.2160 n         1 MOL     -0.372961
     42 C13        -4.1010   -1.8090    0.7000 c3        1 MOL      0.003830
     43 C14        -3.8800   -1.6280    2.2190 c         1 MOL      0.653273
     44 O6         -3.9970   -0.4940    2.7730 o         1 MOL     -0.541933
     45 C15        -3.1920   -0.7660   -0.0320 c3        1 MOL     -0.221206
     46 C16        -1.7060   -1.0520    0.1990 c         1 MOL      0.905387
     47 O7         -1.2890   -2.1190    0.7200 o         1 MOL     -0.867723
     48 O8         -0.9160   -0.2040   -0.1520 o         1 MOL     -0.867723
     49 H21        -5.6960   -0.8330   -0.3070 hn        1 MOL      0.215293
     50 H22        -3.7290   -2.7840    0.3800 h1        1 MOL      0.049780
     51 H23        -3.4580    0.1660    0.4650 hc        1 MOL      0.048571
     52 H24        -3.4270   -0.7450   -1.1010 hc        1 MOL      0.048571
     53 N5         -3.5230   -2.6980    2.8720 n         1 MOL     -0.198764
     54 C17        -3.5320   -2.7290    4.3590 c3        1 MOL     -0.327648
     55 C18        -2.5000   -1.7300    4.9060 c         1 MOL      0.634077
     56 O9         -2.8140   -1.0940    5.9140 o         1 MOL     -0.565101
     57 H25        -3.3110   -3.5530    2.3680 hn        1 MOL      0.250919
     58 H26        -3.1790   -3.6980    4.7210 h1        1 MOL      0.142724
     59 H27        -4.5430   -2.5200    4.6910 h1        1 MOL      0.142724
     60 N6         -1.4210   -1.4520    4.2500 n         1 MOL     -0.550447
     61 C19        -0.4100   -0.5090    4.7320 c3        1 MOL      0.070365
     62 C20        -0.5230    0.8730    4.0300 c         1 MOL      0.321447
     63 O10         0.4670    1.6780    4.0760 o         1 MOL     -0.503703
     64 C21         1.0380   -1.1280    4.4640 c3        1 MOL     -0.181133
     65 C22         1.2150   -1.6790    3.0980 c         1 MOL      0.598850
     66 N7          1.7740   -2.8570    3.0280 n         1 MOL     -0.784544
     67 O11         0.8870   -0.9510    2.1750 o         1 MOL     -0.631988
     68 H28        -1.2800   -1.8320    3.3240 hn        1 MOL      0.375211
     69 H29        -0.5070   -0.2490    5.7840 h1        1 MOL      0.108261
     70 H30         1.1960   -1.9150    5.1980 hc        1 MOL      0.065461
     71 H31         1.7600   -0.3610    4.7570 hc        1 MOL      0.065461
     72 H32         2.1120   -3.3450    3.8460 hn        1 MOL      0.369489
     73 H33         1.8460   -3.2780    2.1130 hn        1 MOL      0.369489
     74 N8         -1.5000    1.1380    3.1710 n         1 MOL      0.036469
     75 C23        -1.8430    2.4730    2.6380 c3        1 MOL     -0.265647
     76 C24        -0.7400    3.1450    1.7900 c         1 MOL      0.600369
     77 O12        -0.0120    4.0200    2.2410 o         1 MOL     -0.551313
     78 H34        -2.2090    0.4400    3.0200 hn        1 MOL      0.137799
     79 H35        -2.1490    3.0510    3.5090 h1        1 MOL      0.111320
     80 H36        -2.7100    2.3950    1.9910 h1        1 MOL      0.111320
     81 N9         -0.5100    2.6540    0.5540 n         1 MOL     -0.385435
     82 C25         0.2540    3.4520   -0.4120 c3        1 MOL      0.279109
     83 C26         1.6240    2.7140   -0.6200 c         1 MOL      0.430802
     84 O13         1.7310    1.4840   -0.3310 o         1 MOL     -0.452813
     85 C27        -0.6940    3.4920   -1.6770 c3        1 MOL     -0.131011
     86 C28        -1.9850    4.2560   -1.5120 ca        1 MOL     -0.023326
     87 C29        -1.9670    5.6530   -1.6720 ca        1 MOL     -0.132118
     88 C30        -3.1290    3.6040   -0.9830 ca        1 MOL     -0.132118
     89 C31        -3.2260    6.3440   -1.6370 ca        1 MOL     -0.285700
     90 C32        -4.2930    4.3620   -0.7210 ca        1 MOL     -0.285700
     91 C33        -4.3290    5.6690   -1.1250 ca        1 MOL      0.454498
     92 O14        -5.4850    6.3690   -1.0220 oh        1 MOL     -0.582647
     93 H37        -1.1390    1.9380    0.2190 hn        1 MOL      0.247007
     94 H38         0.5020    4.4520   -0.0330 h1        1 MOL      0.018108
     95 H39        -0.9150    2.4630   -1.9520 hc        1 MOL      0.013401
     96 H40        -0.0730    3.9070   -2.4820 hc        1 MOL      0.013401
     97 H41        -1.0160    6.0860   -1.9520 ha        1 MOL      0.101394
     98 H42        -3.0630    2.5590   -0.7110 ha        1 MOL      0.101394
     99 H43        -3.2600    7.3720   -1.9660 ha        1 MOL      0.154838
    100 H44        -5.1910    3.8860   -0.3650 ha        1 MOL      0.154838
    101 H45        -6.1660    5.9370   -0.4940 ho        1 MOL      0.429476
    102 N10         2.6390    3.3370   -1.2200 n         1 MOL     -0.656304
    103 C34         3.8550    2.4850   -1.6650 c3        1 MOL      0.030816
    104 C35         4.8090    2.1890   -0.4570 c         1 MOL      0.758993
    105 O15         5.1710    1.0240   -0.2750 o         1 MOL     -0.699583
    106 C36         4.6980    3.1490   -2.7580 c3        1 MOL     -0.054198
    107 C37         3.8450    3.6280   -3.9480 c3        1 MOL      0.149174
    108 C38         5.8200    2.3190   -3.3230 c3        1 MOL     -0.429808
    109 C39         3.0690    2.5810   -4.7050 c3        1 MOL     -0.136897
    110 H46         2.5800    4.2660   -1.6250 hn        1 MOL      0.357467
    111 H47         3.5280    1.5180   -2.0300 h1        1 MOL      0.208451
    112 H48         5.0500    4.0640   -2.2710 hc        1 MOL     -0.003840
    113 H49         4.4030    4.2150   -4.6690 hc        1 MOL     -0.005668
    114 H50         3.1370    4.3660   -3.5580 hc        1 MOL     -0.005668
    115 H51         6.5210    2.1420   -2.4970 hc        1 MOL      0.124906
    116 H52         5.5120    1.3540   -3.7430 hc        1 MOL      0.124906
    117 H53         6.3740    2.8400   -4.0960 hc        1 MOL      0.124906
    118 H54         3.6250    1.6720   -4.9220 hc        1 MOL      0.031230
    119 H55         2.2580    2.2660   -4.0540 hc        1 MOL      0.031230
    120 H56         2.6950    3.0460   -5.6160 hc        1 MOL      0.031230
    121 N11         5.2480    3.1860    0.3130 n         1 MOL     -0.325038
    122 C40         5.8870    2.8600    1.6090 c3        1 MOL     -0.471330
    123 C41         7.3240    2.2780    1.4730 c         1 MOL      0.440967
    124 O16         7.8250    1.7380    2.4590 o         1 MOL     -0.471965
    125 C42         5.7290    4.0870    2.5820 c3        1 MOL      0.342515
    126 O17         4.4150    4.3520    2.9880 oh        1 MOL     -0.599478
    127 H57         4.9420    4.1130    0.0760 hn        1 MOL      0.274005
    128 H58         5.2790    2.0670    2.0490 h1        1 MOL      0.241790
    129 H59         6.0850    5.0670    2.2430 h1        1 MOL      0.034007
    130 H60         6.2910    3.8380    3.4770 h1        1 MOL      0.034007
    131 H61         3.8480    3.6470    2.6590 ho        1 MOL      0.416210
    132 N12         7.9710    2.3980    0.3570 n         1 MOL     -0.162390
    133 C43         9.3070    1.8310    0.0560 c3        1 MOL      0.045237
    134 C44         9.2280    0.2620    0.2060 c         1 MOL      0.551775
    135 O18        10.1620   -0.4270    0.5750 o         1 MOL     -0.506374
    136 C45        10.3370    2.6050    0.9050 c3        1 MOL     -0.331772
    137 H62         7.5360    2.9390   -0.3730 hn        1 MOL      0.185774
    138 H63         9.5260    2.0660   -0.9870 h1        1 MOL      0.074392
    139 H64        11.3480    2.5710    0.4880 hc        1 MOL      0.109825
    140 H65         9.9700    3.6020    1.1360 hc        1 MOL      0.109825
    141 H66        10.5040    2.1080    1.8500 hc        1 MOL      0.109825
    142 N13         8.0710   -0.4080   -0.0870 n         1 MOL     -0.597123
    143 C46         7.7300   -1.8360    0.3280 c3        1 MOL      0.399104
    144 C47         6.8500   -2.5860   -0.7150 c         1 MOL      0.364559
    145 O19         6.3660   -1.9680   -1.5820 o         1 MOL     -0.426220
    146 C48         7.0320   -1.7270    1.7350 c3        1 MOL     -0.347853
    147 H67         7.3080    0.1590   -0.4150 hn        1 MOL      0.214552
    148 H68         8.6440   -2.3940    0.5390 h1        1 MOL     -0.007268
    149 H69         6.3730   -0.8670    1.6180 hc        1 MOL      0.098571
    150 H70         6.5230   -2.6200    2.1080 hc        1 MOL      0.098571
    151 H71         7.7320   -1.4540    2.5250 hc        1 MOL      0.098571
    152 N14         6.7120   -3.9280   -0.5240 n         1 MOL     -0.357596
    153 C49         6.0820   -4.8920   -1.4900 c3        1 MOL     -0.044327
    154 C50         6.4870   -4.7290   -2.9470 c         1 MOL      0.352521
    155 O20         5.6960   -4.9360   -3.8690 o         1 MOL     -0.482973
    156 C51         4.5120   -4.7640   -1.3350 c3        1 MOL      0.145511
    157 C52         4.1140   -4.9530    0.1340 c3        1 MOL     -0.118441
    158 C53         2.5490   -4.8400    0.3290 c         1 MOL      0.615132
    159 O21         2.0470   -3.6570    0.2790 o         1 MOL     -0.634807
    160 O22         1.8440   -5.8580    0.4700 o         1 MOL     -0.634807
    161 H72         7.1720   -4.3010    0.3020 hn        1 MOL      0.268356
    162 H73         6.4030   -5.8980   -1.2040 h1        1 MOL      0.102490
    163 H74         3.9440   -5.4850   -1.9110 hc        1 MOL     -0.011354
    164 H75         4.1640   -3.8300   -1.7800 hc        1 MOL     -0.011354
    165 H76         4.6150   -4.2180    0.7580 hc        1 MOL     -0.019769
    166 H77         4.4940   -5.9350    0.4100 hc        1 MOL     -0.019769
    167 N15         7.7260   -4.3460   -3.1880 n         1 MOL     -0.156434
    168 C54         8.1930   -3.7290   -4.4330 c3        1 MOL     -0.262167
    169 H78         9.1300   -3.2040   -4.2490 h1        1 MOL      0.119037
    170 H79         8.3510   -4.5010   -5.1850 h1        1 MOL      0.119037
    171 H80         7.4450   -3.0200   -4.7900 h1        1 MOL      0.119037
    172 H81         8.2770   -4.3800   -2.3490 hn        1 MOL      0.171283
    173 Ca1         1.4540   -1.3230   -0.4850 Ca        1 MOL      1.781319
    174 O23         3.6570   -0.6110    1.0720 oh        1 MOL     -0.877247
    175 H82         3.9750   -0.8250    1.9490 ho        1 MOL      0.429750
    176 H83         4.4040   -0.1850    0.6490 ho        1 MOL      0.429750
    177 O24         0.5770   -2.8910   -2.4970 oh        1 MOL     -0.877247
    178 H84        -0.2310   -2.7660   -2.9840 ho        1 MOL      0.429750
    179 H85         0.9920   -3.6460   -2.8970 ho        1 MOL      0.429750
    180 O25         1.0360   -0.2460   -3.2690 oh        1 MOL     -0.877247
    181 H86         1.0600    0.3120   -4.0350 ho        1 MOL      0.429750
    182 H87         0.1070   -0.3220   -3.0530 ho        1 MOL      0.429750
    183 O26         3.6120   -1.2150   -1.8420 oh        1 MOL     -0.877247
    184 H88         3.6820   -1.1270   -2.7860 ho        1 MOL      0.429750
    185 H89         4.4490   -1.6160   -1.5800 ho        1 MOL      0.429750
@<TRIPOS>BOND
     1    1    2 1   
     2    1    4 1   
     3    1    5 1   
     4    1    6 1   
     5    2    3 2   
     6    2    7 1   
     7    7    8 1   
     8    7   15 1   
     9    8    9 1   
    10    8   11 1   
    11    8   16 1   
    12    9   10 2   
    13    9   19 1   
    14   11   12 1   
    15   11   17 1   
    16   11   18 1   
    17   12   13 1   
    18   12   14 1   
    19   19   20 1   
    20   19   28 1   
    21   20   21 1   
    22   20   23 1   
    23   20   29 1   
    24   21   22 2   
    25   21   41 1   
    26   23   24 1   
    27   23   30 1   
    28   23   31 1   
    29   24   25 1   
    30   24   32 1   
    31   24   33 1   
    32   25   26 1   
    33   25   34 1   
    34   25   35 1   
    35   26   27 1   
    36   26   36 1   
    37   26   37 1   
    38   27   38 1   
    39   27   39 1   
    40   27   40 1   
    41   41   42 1   
    42   41   49 1   
    43   42   43 1   
    44   42   45 1   
    45   42   50 1   
    46   43   44 2   
    47   43   53 1   
    48   45   46 1   
    49   45   51 1   
    50   45   52 1   
    51   46   47 1   
    52   46   48 1   
    53   53   54 1   
    54   53   57 1   
    55   54   55 1   
    56   54   58 1   
    57   54   59 1   
    58   55   56 2   
    59   55   60 1   
    60   60   61 1   
    61   60   68 1   
    62   61   62 1   
    63   61   64 1   
    64   61   69 1   
    65   62   63 2   
    66   62   74 1   
    67   64   65 1   
    68   64   70 1   
    69   64   71 1   
    70   65   66 1   
    71   65   67 2   
    72   66   72 1   
    73   66   73 1   
    74   74   75 1   
    75   74   78 1   
    76   75   76 1   
    77   75   79 1   
    78   75   80 1   
    79   76   77 2   
    80   76   81 1   
    81   81   82 1   
    82   81   93 1   
    83   82   83 1   
    84   82   85 1   
    85   82   94 1   
    86   83   84 2   
    87   83  102 1   
    88   85   86 1   
    89   85   95 1   
    90   85   96 1   
    91   86   87 ar  
    92   86   88 ar  
    93   87   89 ar  
    94   87   97 1   
    95   88   90 ar  
    96   88   98 1   
    97   89   91 ar  
    98   89   99 1   
    99   90   91 ar  
   100   90  100 1   
   101   91   92 1   
   102   92  101 1   
   103  102  103 1   
   104  102  110 1   
   105  103  104 1   
   106  103  106 1   
   107  103  111 1   
   108  104  105 2   
   109  104  121 1   
   110  106  107 1   
   111  106  108 1   
   112  106  112 1   
   113  107  109 1   
   114  107  113 1   
   115  107  114 1   
   116  108  115 1   
   117  108  116 1   
   118  108  117 1   
   119  109  118 1   
   120  109  119 1   
   121  109  120 1   
   122  121  122 1   
   123  121  127 1   
   124  122  123 1   
   125  122  125 1   
   126  122  128 1   
   127  123  124 2   
   128  123  132 1   
   129  125  126 1   
   130  125  129 1   
   131  125  130 1   
   132  126  131 1   
   133  132  133 1   
   134  132  137 1   
   135  133  134 1   
   136  133  136 1   
   137  133  138 1   
   138  134  135 2   
   139  134  142 1   
   140  136  139 1   
   141  136  140 1   
   142  136  141 1   
   143  142  143 1   
   144  142  147 1   
   145  143  144 1   
   146  143  146 1   
   147  143  148 1   
   148  144  145 2   
   149  144  152 1   
   150  146  149 1   
   151  146  150 1   
   152  146  151 1   
   153  152  153 1   
   154  152  161 1   
   155  153  154 1   
   156  153  156 1   
   157  153  162 1   
   158  154  155 2   
   159  154  167 1   
   160  156  157 1   
   161  156  163 1   
   162  156  164 1   
   163  157  158 1   
   164  157  165 1   
   165  157  166 1   
   166  158  159 1   
   167  158  160 1   
   168  167  168 1   
   169  167  172 1   
   170  168  169 1   
   171  168  170 1   
   172  168  171 1   
   173  174  175 1   
   174  174  176 1   
   175  177  178 1   
   176  177  179 1   
   177  180  181 1   
   178  180  182 1   
   179  183  184 1   
   180  183  185 1   
@<TRIPOS>SUBSTRUCTURE
     1 MOL         1 TEMP              0 ****  ****    0 ROOT
