@<TRIPOS>MOLECULE
MOL
  192   187     1     0     0
SMALL
resp


@<TRIPOS>ATOM
      1 C1          4.7890    4.6860   -2.6550 c3        1 MOL     -0.384750
      2 C2          5.5800    3.7750   -1.6600 c         1 MOL      0.766285
      3 O1          5.0100    3.1930   -0.7470 o         1 MOL     -0.637851
      4 H1          4.5850    5.6480   -2.1830 hc        1 MOL      0.092788
      5 H2          5.3810    4.8420   -3.5560 hc        1 MOL      0.092788
      6 H3          3.8470    4.2050   -2.9170 hc        1 MOL      0.092788
      7 N1          6.8120    3.3680   -2.1010 n         1 MOL     -0.741389
      8 C3          7.4490    2.1660   -1.6150 c3        1 MOL      0.533770
      9 C4          6.4480    0.9590   -1.5380 c         1 MOL      0.236488
     10 O2          6.0690    0.6440   -0.4490 o         1 MOL     -0.464167
     11 C5          8.2930    2.4420   -0.3630 c3        1 MOL     -0.301064
     12 C6          7.5930    3.1930    0.7370 c         1 MOL      0.780285
     13 O3          6.7920    2.5810    1.4860 o         1 MOL     -0.741433
     14 O4          7.8380    4.4130    0.9010 o         1 MOL     -0.741433
     15 H4          7.2540    3.8300   -2.8880 hn        1 MOL      0.328168
     16 H5          8.2350    1.8830   -2.3150 h1        1 MOL     -0.045198
     17 H6          9.1720    3.0020   -0.6740 hc        1 MOL      0.046619
     18 H7          8.4660    1.4680    0.1030 hc        1 MOL      0.046619
     19 N2          5.9380    0.5090   -2.7200 n         1 MOL     -0.442011
     20 C7          4.9800   -0.5340   -3.0010 c3        1 MOL      0.342683
     21 C8          5.4990   -1.9510   -2.5780 c         1 MOL      0.118351
     22 O5          5.6250   -2.7860   -3.4360 o         1 MOL     -0.526142
     23 C9          3.4960   -0.1870   -2.6570 c3        1 MOL      0.186586
     24 C10         2.5770   -1.4390   -2.5270 c3        1 MOL     -0.316936
     25 C11         2.9840    0.8470   -3.7270 c3        1 MOL     -0.484537
     26 C12         2.2130   -2.2590   -3.7630 c3        1 MOL     -0.297351
     27 H8          6.2660    1.0660   -3.4900 hn        1 MOL      0.242298
     28 H9          4.9970   -0.6280   -4.0830 h1        1 MOL     -0.006416
     29 H10         3.6050    0.3530   -1.7140 hc        1 MOL     -0.116740
     30 H11         1.6280   -1.0920   -2.1120 hc        1 MOL      0.156117
     31 H12         3.0030   -2.1070   -1.7820 hc        1 MOL      0.156117
     32 H13         3.3700    1.8240   -3.4680 hc        1 MOL      0.122419
     33 H14         3.4910    0.6890   -4.6840 hc        1 MOL      0.122419
     34 H15         1.8950    0.8790   -3.7760 hc        1 MOL      0.122419
     35 H16         1.3980   -2.9150   -3.4480 hc        1 MOL      0.081261
     36 H17         1.7830   -1.6680   -4.5780 hc        1 MOL      0.081261
     37 H18         3.0630   -2.8710   -4.0690 hc        1 MOL      0.081261
     38 N3          5.9140   -2.1500   -1.3400 n         1 MOL      0.350192
     39 C13         6.7350   -3.2080   -0.8270 c3        1 MOL      0.000985
     40 C14         6.0890   -4.5690   -1.0340 c         1 MOL      0.537602
     41 O6          6.8350   -5.4250   -1.5030 o         1 MOL     -0.599376
     42 C15         7.1340   -2.9860    0.5650 c3        1 MOL     -0.015404
     43 C16         7.9510   -1.7750    0.9120 c         1 MOL      0.699910
     44 O7          7.9090   -1.4180    2.1250 o         1 MOL     -0.711659
     45 O8          8.6150   -1.3120   -0.0140 o         1 MOL     -0.711659
     46 H19         6.0050   -1.3030   -0.7930 hn        1 MOL      0.003585
     47 H20         7.6120   -3.1190   -1.4680 h1        1 MOL      0.008106
     48 H21         7.7220   -3.8290    0.9180 hc        1 MOL     -0.012179
     49 H22         6.2470   -2.9610    1.2100 hc        1 MOL     -0.012179
     50 N4          4.8580   -4.9560   -0.7160 n         1 MOL     -0.489301
     51 C17         3.8710   -4.2310    0.1190 c3        1 MOL      0.086874
     52 C18         4.0790   -4.3530    1.6090 c         1 MOL      0.355912
     53 O9          4.9050   -5.1300    2.0720 o         1 MOL     -0.522621
     54 H23         4.5360   -5.9070   -0.8790 hn        1 MOL      0.294423
     55 H24         2.9010   -4.6620   -0.1350 h1        1 MOL      0.024735
     56 H25         3.8330   -3.1660   -0.1300 h1        1 MOL      0.024735
     57 N5          3.5210   -3.5040    2.4480 n         1 MOL     -0.151352
     58 C19         2.2630   -2.7410    2.3010 c3        1 MOL     -0.187491
     59 C20         2.4370   -1.4180    1.4520 c         1 MOL      0.606892
     60 O10         3.4930   -0.8180    1.1400 o         1 MOL     -0.578052
     61 C21         1.8230   -2.4230    3.7190 c3        1 MOL     -0.547804
     62 C22         2.0250   -3.5200    4.7550 c         1 MOL      0.704590
     63 O11         3.1120   -3.6340    5.3370 o         1 MOL     -0.697435
     64 O12         1.1070   -4.4240    4.7510 o         1 MOL     -0.697435
     65 H26         3.9810   -3.4650    3.3460 hn        1 MOL      0.293074
     66 H27         1.5440   -3.4350    1.8780 h1        1 MOL      0.194789
     67 H28         0.7730   -2.1220    3.6810 hc        1 MOL      0.136238
     68 H29         2.4440   -1.5820    4.0270 hc        1 MOL      0.136238
     69 N6          1.3820   -0.9100    0.7860 n         1 MOL      0.005065
     70 C23        -0.0250   -1.2550    0.9590 c3        1 MOL     -0.340019
     71 C24        -0.3450   -2.6760    0.4380 c         1 MOL      0.486638
     72 O13         0.5120   -3.2420   -0.2010 o         1 MOL     -0.502395
     73 H30         1.6360   -0.1990    0.1200 hn        1 MOL     -0.022939
     74 H31        -0.6730   -0.5240    0.4700 h1        1 MOL      0.113900
     75 H32        -0.2980   -1.1610    2.0110 h1        1 MOL      0.113900
     76 N7         -1.6330   -3.1280    0.5870 n         1 MOL     -0.356945
     77 C25        -2.1510   -4.3100   -0.1590 c3        1 MOL     -0.086707
     78 C26        -2.9120   -4.0480   -1.4160 c         1 MOL      0.452870
     79 O14        -3.4400   -4.9980   -2.0160 o         1 MOL     -0.508582
     80 C27        -2.8800   -5.2260    0.8220 c3        1 MOL      0.078944
     81 C28        -4.1190   -4.6120    1.4230 c3        1 MOL     -0.183751
     82 C29        -4.7700   -5.6320    2.3170 c         1 MOL      0.605420
     83 N8         -4.5690   -5.5720    3.6080 n         1 MOL     -0.779475
     84 O15        -5.5340   -6.4270    1.8040 o         1 MOL     -0.541957
     85 H33        -2.2820   -2.6310    1.1820 hn        1 MOL      0.273008
     86 H34        -1.2500   -4.8760   -0.3910 h1        1 MOL      0.127814
     87 H35        -2.2600   -5.4680    1.6950 hc        1 MOL      0.036304
     88 H36        -3.2070   -6.1510    0.3520 hc        1 MOL      0.036304
     89 H37        -4.7640   -4.3290    0.5840 hc        1 MOL     -0.006518
     90 H38        -3.8230   -3.7140    1.9660 hc        1 MOL     -0.006518
     91 H39        -3.9330   -4.8320    3.8640 hn        1 MOL      0.383309
     92 H40        -5.0250   -6.2600    4.2030 hn        1 MOL      0.383309
     93 N9         -3.0210   -2.7950   -1.9590 n         1 MOL     -0.116306
     94 C30        -3.5030   -2.4230   -3.2700 c3        1 MOL     -0.268102
     95 C31        -4.8950   -1.8010   -3.1930 c         1 MOL      0.583387
     96 O16        -5.5950   -1.8810   -4.2140 o         1 MOL     -0.526793
     97 C32        -2.4460   -1.6220   -4.0880 c3        1 MOL      0.161883
     98 C33        -1.4490   -2.5990   -4.7040 c3        1 MOL     -0.269171
     99 C34        -1.6800   -0.6210   -3.2430 c3        1 MOL     -0.269171
    100 H41        -2.7340   -2.0330   -1.3520 hn        1 MOL      0.162792
    101 H42        -3.6280   -3.3250   -3.8820 h1        1 MOL      0.167055
    102 H43        -3.0150   -1.0740   -4.8390 hc        1 MOL      0.022063
    103 H44        -0.5450   -2.0560   -4.9620 hc        1 MOL      0.076282
    104 H45        -1.1250   -3.2500   -3.8940 hc        1 MOL      0.076282
    105 H46        -1.8590   -3.2750   -5.4610 hc        1 MOL      0.076282
    106 H47        -1.0150   -1.1090   -2.5330 hc        1 MOL      0.076282
    107 H48        -1.1370    0.0350   -3.9130 hc        1 MOL      0.076282
    108 H49        -2.3620   -0.0100   -2.6410 hc        1 MOL      0.076282
    109 N10        -5.4440   -1.3350   -2.0490 n         1 MOL     -0.357595
    110 C35        -6.7690   -0.7440   -1.8630 c3        1 MOL      0.081883
    111 C36        -6.7920    0.7010   -1.3410 c         1 MOL      0.516713
    112 O17        -7.3110    1.6590   -2.0010 o         1 MOL     -0.548755
    113 C37        -7.6750   -1.6190   -1.0130 c3        1 MOL     -0.182566
    114 C38        -7.5400   -3.0710   -1.2550 c         1 MOL      0.700209
    115 N11        -6.7290   -3.7780   -0.4690 n         1 MOL     -0.877992
    116 O18        -8.0810   -3.6480   -2.1620 o         1 MOL     -0.549829
    117 H50        -4.8820   -1.3130   -1.2150 hn        1 MOL      0.163362
    118 H51        -7.1910   -0.6460   -2.8570 h1        1 MOL      0.065209
    119 H52        -8.7030   -1.3670   -1.2940 hc        1 MOL      0.061493
    120 H53        -7.5960   -1.4230    0.0590 hc        1 MOL      0.061493
    121 H54        -6.2400   -3.3750    0.3220 hn        1 MOL      0.404778
    122 H55        -6.4760   -4.7140   -0.7630 hn        1 MOL      0.404778
    123 N12        -6.1960    0.9390   -0.2060 n         1 MOL     -0.577488
    124 C39        -6.1260    2.1990    0.5070 c3        1 MOL      0.481093
    125 C40        -4.7050    2.7830    0.6980 c         1 MOL      0.428747
    126 O19        -3.7020    2.1200    0.6120 o         1 MOL     -0.527751
    127 C41        -6.8780    2.0640    1.8150 c3        1 MOL     -0.188535
    128 C42        -8.2270    1.2960    1.6760 ca        1 MOL     -0.072750
    129 C43        -9.1910    1.7290    0.8130 ca        1 MOL     -0.024523
    130 C44        -8.3950    0.1050    2.4110 ca        1 MOL     -0.024523
    131 C45       -10.4320    1.0300    0.7070 ca        1 MOL     -0.390676
    132 C46        -9.5250   -0.6600    2.2400 ca        1 MOL     -0.390676
    133 C47       -10.5640   -0.2290    1.4010 ca        1 MOL      0.463191
    134 O20       -11.6720   -0.9810    1.2190 oh        1 MOL     -0.531484
    135 H56        -5.9240    0.0950    0.2730 hn        1 MOL      0.278536
    136 H57        -6.6000    2.9230   -0.1420 h1        1 MOL     -0.026916
    137 H58        -7.0400    3.1220    2.0350 hc        1 MOL      0.059080
    138 H59        -6.2210    1.5990    2.5540 hc        1 MOL      0.059080
    139 H60        -9.0590    2.5840    0.1640 ha        1 MOL      0.114643
    140 H61        -7.6590   -0.1960    3.1410 ha        1 MOL      0.114643
    141 H62       -11.0820    1.3850   -0.0720 ha        1 MOL      0.173273
    142 H63        -9.6940   -1.5650    2.8020 ha        1 MOL      0.173273
    143 H64       -12.3780   -0.5550    0.7290 ho        1 MOL      0.382822
    144 N13        -4.6880    4.0760    0.9470 n         1 MOL     -0.659511
    145 C48        -3.5490    4.9560    1.2400 c3        1 MOL      0.274236
    146 C49        -2.4120    5.0560    0.1300 c         1 MOL      0.291431
    147 O21        -1.6700    6.1100    0.0220 o         1 MOL     -0.475267
    148 C50        -3.0440    4.6410    2.6360 c3        1 MOL     -0.112750
    149 C51        -2.3410    5.8250    3.2950 c3        1 MOL     -0.320561
    150 C52        -2.0410    5.7150    4.7920 c         1 MOL      0.773044
    151 O22        -0.8530    5.5450    5.1640 o         1 MOL     -0.749923
    152 O23        -2.9630    5.9010    5.6330 o         1 MOL     -0.749923
    153 H65        -5.5890    4.5350    0.9530 hn        1 MOL      0.328935
    154 H66        -3.8840    5.9900    1.2970 h1        1 MOL      0.038190
    155 H67        -2.4060    3.7610    2.6300 hc        1 MOL      0.076378
    156 H68        -3.8800    4.3770    3.2890 hc        1 MOL      0.076378
    157 H69        -2.9500    6.7070    3.0760 hc        1 MOL      0.060811
    158 H70        -1.5100    6.1340    2.6650 hc        1 MOL      0.060811
    159 N14        -2.1910    4.1070   -0.7910 n         1 MOL     -0.315007
    160 C53        -1.1550    4.2200   -1.8020 c3        1 MOL     -0.006634
    161 C54        -1.6540    5.0640   -3.0000 c         1 MOL      0.664404
    162 O24        -0.9660    6.0660   -3.3110 o         1 MOL     -0.543178
    163 C55        -0.5930    2.8650   -2.1910 c3        1 MOL     -0.336215
    164 C56         0.1420    1.9840   -1.1320 c3        1 MOL      0.831643
    165 C57         1.3430    2.5250   -0.3460 c         1 MOL      0.444042
    166 O25         2.4520    1.8690   -0.2440 o         1 MOL     -0.577249
    167 O26         1.2240    3.6590    0.1980 o         1 MOL     -0.577249
    168 H71        -2.8440    3.3660   -0.9710 hn        1 MOL      0.284370
    169 H72        -0.3260    4.7720   -1.3480 h1        1 MOL      0.125254
    170 H73         0.1760    3.0280   -2.9450 hc        1 MOL      0.005415
    171 H74        -1.4230    2.2190   -2.4920 hc        1 MOL      0.005415
    172 H75         0.4670    1.1000   -1.6840 hc        1 MOL     -0.194572
    173 H76        -0.5850    1.6590   -0.3870 hc        1 MOL     -0.194572
    174 N15        -2.7800    4.7360   -3.6300 n         1 MOL     -0.484899
    175 C58        -3.5450    5.7580   -4.3510 c3        1 MOL     -0.214471
    176 H77        -3.8280    6.5530   -3.6610 h1        1 MOL      0.105284
    177 H78        -2.9330    6.1730   -5.1510 h1        1 MOL      0.105284
    178 H79        -4.4420    5.3080   -4.7760 h1        1 MOL      0.105284
    179 H80        -3.4060    4.0300   -3.2600 hn        1 MOL      0.313742
    180 Ca1         4.3950    1.5420    1.2670 Ca        1 MOL      1.847365
    181 O27         5.2880    2.7000    3.8050 oh        1 MOL     -0.843194
    182 H81         5.8810    3.4440    3.9120 ho        1 MOL      0.397148
    183 H82         5.2370    2.3040    4.6730 ho        1 MOL      0.397148
    184 O28         3.4630    4.0440    1.5430 oh        1 MOL     -0.843194
    185 H83         3.9410    4.8370    1.2990 ho        1 MOL      0.397148
    186 H84         2.6670    4.0730    1.0210 ho        1 MOL      0.397148
    187 O29         2.2060    1.4250    2.9900 oh        1 MOL     -0.843194
    188 O30         5.6050   -0.1650    2.8940 oh        1 MOL     -0.843194
    189 H85         1.5040    2.0800    2.9040 ho        1 MOL      0.397148
    190 H86         6.5340   -0.2970    2.7150 ho        1 MOL      0.397148
    191 H87         2.1390    1.1210    3.8960 ho        1 MOL      0.397148
    192 H88         5.4120   -0.7470    3.6250 ho        1 MOL      0.397148
@<TRIPOS>BOND
     1    1    2 1   
     2    1    4 1   
     3    1    5 1   
     4    1    6 1   
     5    2    3 2   
     6    2    7 1   
     7    7    8 1   
     8    7   15 1   
     9    8    9 1   
    10    8   11 1   
    11    8   16 1   
    12    9   10 2   
    13    9   19 1   
    14   11   12 1   
    15   11   17 1   
    16   11   18 1   
    17   12   13 1   
    18   12   14 1   
    19   19   20 1   
    20   19   27 1   
    21   20   21 1   
    22   20   23 1   
    23   20   28 1   
    24   21   22 2   
    25   21   38 1   
    26   23   24 1   
    27   23   25 1   
    28   23   29 1   
    29   24   26 1   
    30   24   30 1   
    31   24   31 1   
    32   25   32 1   
    33   25   33 1   
    34   25   34 1   
    35   26   35 1   
    36   26   36 1   
    37   26   37 1   
    38   38   39 1   
    39   38   46 1   
    40   39   40 1   
    41   39   42 1   
    42   39   47 1   
    43   40   41 2   
    44   40   50 1   
    45   42   43 1   
    46   42   48 1   
    47   42   49 1   
    48   43   44 1   
    49   43   45 1   
    50   50   51 1   
    51   50   54 1   
    52   51   52 1   
    53   51   55 1   
    54   51   56 1   
    55   52   53 2   
    56   52   57 1   
    57   57   58 1   
    58   57   65 1   
    59   58   59 1   
    60   58   61 1   
    61   58   66 1   
    62   59   60 2   
    63   59   69 1   
    64   61   62 1   
    65   61   67 1   
    66   61   68 1   
    67   62   63 1   
    68   62   64 1   
    69   69   70 1   
    70   69   73 1   
    71   70   71 1   
    72   70   74 1   
    73   70   75 1   
    74   71   72 2   
    75   71   76 1   
    76   76   77 1   
    77   76   85 1   
    78   77   78 1   
    79   77   80 1   
    80   77   86 1   
    81   78   79 2   
    82   78   93 1   
    83   80   81 1   
    84   80   87 1   
    85   80   88 1   
    86   81   82 1   
    87   81   89 1   
    88   81   90 1   
    89   82   83 1   
    90   82   84 2   
    91   83   91 1   
    92   83   92 1   
    93   93   94 1   
    94   93  100 1   
    95   94   95 1   
    96   94   97 1   
    97   94  101 1   
    98   95   96 2   
    99   95  109 1   
   100   97   98 1   
   101   97   99 1   
   102   97  102 1   
   103   98  103 1   
   104   98  104 1   
   105   98  105 1   
   106   99  106 1   
   107   99  107 1   
   108   99  108 1   
   109  109  110 1   
   110  109  117 1   
   111  110  111 1   
   112  110  113 1   
   113  110  118 1   
   114  111  112 2   
   115  111  123 1   
   116  113  114 1   
   117  113  119 1   
   118  113  120 1   
   119  114  115 1   
   120  114  116 2   
   121  115  121 1   
   122  115  122 1   
   123  123  124 1   
   124  123  135 1   
   125  124  125 1   
   126  124  127 1   
   127  124  136 1   
   128  125  126 2   
   129  125  144 1   
   130  127  128 1   
   131  127  137 1   
   132  127  138 1   
   133  128  129 ar  
   134  128  130 ar  
   135  129  131 ar  
   136  129  139 1   
   137  130  132 ar  
   138  130  140 1   
   139  131  133 ar  
   140  131  141 1   
   141  132  133 ar  
   142  132  142 1   
   143  133  134 1   
   144  134  143 1   
   145  144  145 1   
   146  144  153 1   
   147  145  146 1   
   148  145  148 1   
   149  145  154 1   
   150  146  147 2   
   151  146  159 1   
   152  148  149 1   
   153  148  155 1   
   154  148  156 1   
   155  149  150 1   
   156  149  157 1   
   157  149  158 1   
   158  150  151 1   
   159  150  152 1   
   160  159  160 1   
   161  159  168 1   
   162  160  161 1   
   163  160  163 1   
   164  160  169 1   
   165  161  162 2   
   166  161  174 1   
   167  163  164 1   
   168  163  170 1   
   169  163  171 1   
   170  164  165 1   
   171  164  172 1   
   172  164  173 1   
   173  165  166 1   
   174  165  167 1   
   175  174  175 1   
   176  174  179 1   
   177  175  176 1   
   178  175  177 1   
   179  175  178 1   
   180  181  182 1   
   181  181  183 1   
   182  184  185 1   
   183  184  186 1   
   184  187  189 1   
   185  187  191 1   
   186  188  190 1   
   187  188  192 1   
@<TRIPOS>SUBSTRUCTURE
     1 MOL         1 TEMP              0 ****  ****    0 ROOT
