@<TRIPOS>MOLECULE
MOL
  188   182     1     0     0
SMALL
resp


@<TRIPOS>ATOM
      1 C1          7.3340    6.6920    1.1400 c3        1 MOL     -0.450115
      2 C2          8.1590    5.5090    1.6880 c         1 MOL      0.663305
      3 O1          8.1130    5.1260    2.8890 o         1 MOL     -0.580494
      4 H1          8.0080    7.4860    0.8210 hc        1 MOL      0.110103
      5 H2          6.7390    6.3580    0.2900 hc        1 MOL      0.110103
      6 H3          6.6740    7.0680    1.9210 hc        1 MOL      0.110103
      7 N1          8.8960    4.9470    0.7440 n         1 MOL     -0.512361
      8 C3          9.6330    3.7060    0.8600 c3        1 MOL      0.169803
      9 C4          8.9980    2.5700    0.0630 c         1 MOL      0.478311
     10 O2          8.7010    2.8560   -1.0670 o         1 MOL     -0.512761
     11 C5         11.0970    3.8880    0.4720 c3        1 MOL     -0.020437
     12 C6         11.8970    2.5790    0.7090 c         1 MOL      0.721800
     13 O3         12.2440    2.3070    1.8770 o         1 MOL     -0.727534
     14 O4         12.1410    1.8820   -0.2800 o         1 MOL     -0.727534
     15 H4          8.8500    5.3560   -0.1750 hn        1 MOL      0.289528
     16 H5          9.7280    3.4990    1.9270 h1        1 MOL      0.046579
     17 H6         11.4540    4.6820    1.1340 hc        1 MOL     -0.029164
     18 H7         11.2920    4.2190   -0.5460 hc        1 MOL     -0.029164
     19 N2          8.8240    1.3540    0.6510 n         1 MOL     -0.586737
     20 C7          8.1720    0.1940   -0.0590 c3        1 MOL      0.249097
     21 C8          7.0140   -0.2250    0.8220 c         1 MOL      0.703517
     22 O5          6.9990   -0.1220    2.0460 o         1 MOL     -0.599515
     23 C9          9.2180   -0.8200   -0.4620 c3        1 MOL     -0.174677
     24 C10         9.7140   -1.7870    0.5680 c3        1 MOL      0.138325
     25 C11        10.5390   -2.8660   -0.1150 c3        1 MOL     -0.351516
     26 C12        11.3090   -3.6170    0.9230 c3        1 MOL      0.284634
     27 N3         12.1450   -4.6330    0.2570 n4        1 MOL     -0.425508
     28 H8          9.1960    1.1820    1.5640 hn        1 MOL      0.314588
     29 H9          7.7920    0.5900   -0.9980 h1        1 MOL      0.007722
     30 H10        10.0870   -0.3260   -0.8980 hc        1 MOL      0.075795
     31 H11         8.8060   -1.3850   -1.3020 hc        1 MOL      0.075795
     32 H12         8.8560   -2.3580    0.9220 hc        1 MOL      0.002350
     33 H13        10.2980   -1.2720    1.3280 hc        1 MOL      0.002350
     34 H14        11.2150   -2.3120   -0.7730 hc        1 MOL      0.098229
     35 H15         9.9600   -3.4750   -0.8130 hc        1 MOL      0.098229
     36 H16        10.6010   -4.1470    1.5480 hx        1 MOL      0.031887
     37 H17        11.8680   -3.0330    1.6550 hx        1 MOL      0.031887
     38 H18        11.5580   -5.3900   -0.0670 hn        1 MOL      0.297976
     39 H19        12.6700   -4.1210   -0.4490 hn        1 MOL      0.297976
     40 H20        12.7670   -4.9900    0.9670 hn        1 MOL      0.297976
     41 N4          5.9740   -0.6680    0.1360 n         1 MOL     -0.613585
     42 C13         4.6590   -0.8220    0.7990 c3        1 MOL      0.135108
     43 C14         4.3380   -2.3330    1.1610 c         1 MOL      0.452316
     44 O6          4.5930   -3.2350    0.3370 o         1 MOL     -0.491007
     45 C15         3.5400   -0.1450    0.0080 c3        1 MOL     -0.488533
     46 C16         2.2550   -0.2100    0.6840 c         1 MOL      0.800993
     47 O7          1.6130   -1.2420    0.5900 o         1 MOL     -0.744956
     48 O8          1.7270    0.7250    1.2680 o         1 MOL     -0.744956
     49 H21         5.9760   -0.7630   -0.8650 hn        1 MOL      0.315130
     50 H22         4.6920   -0.1910    1.6930 h1        1 MOL      0.094012
     51 H23         3.4580   -0.5570   -0.9900 hc        1 MOL      0.169379
     52 H24         4.0270    0.8290   -0.0260 hc        1 MOL      0.169379
     53 N5          3.7940   -2.6180    2.3260 n         1 MOL     -0.391368
     54 C17         3.4630   -4.0600    2.6940 c3        1 MOL     -0.000751
     55 C18         2.2180   -4.6310    2.0460 c         1 MOL      0.509144
     56 O9          1.6910   -5.6830    2.5290 o         1 MOL     -0.576744
     57 H25         3.6420   -1.8380    2.9530 hn        1 MOL      0.272165
     58 H26         3.2460   -4.1260    3.7670 h1        1 MOL      0.088598
     59 H27         4.3240   -4.7110    2.5440 h1        1 MOL      0.088598
     60 N6          1.6620   -3.9990    0.9900 n         1 MOL     -0.236771
     61 C19         0.6580   -4.6390    0.1250 c3        1 MOL     -0.065085
     62 C20         0.9750   -4.3760   -1.3790 c         1 MOL      0.369926
     63 O10         0.1170   -4.5450   -2.2250 o         1 MOL     -0.464031
     64 C21        -0.7330   -4.0420    0.4420 c3        1 MOL     -0.348662
     65 C22        -1.0360   -3.7320    1.8790 c         1 MOL      0.857484
     66 N7         -1.7520   -4.5790    2.5340 n         1 MOL     -0.737287
     67 O11        -1.0470   -2.5730    2.2860 o         1 MOL     -0.758420
     68 H28         2.0530   -3.1050    0.7500 hn        1 MOL      0.088502
     69 H29         0.6440   -5.7040    0.3530 h1        1 MOL      0.151973
     70 H30        -1.4490   -4.7940    0.1090 hc        1 MOL      0.126071
     71 H31        -0.9550   -3.1280   -0.1130 hc        1 MOL      0.126071
     72 H32        -2.0730   -5.4190    2.0800 hn        1 MOL      0.364564
     73 H33        -2.0700   -4.2890    3.4470 hn        1 MOL      0.364564
     74 N8          2.1210   -3.7730   -1.6150 n         1 MOL     -0.092535
     75 C23         2.5460   -3.2140   -2.8280 c3        1 MOL     -0.096206
     76 C24         1.9740   -1.7630   -3.1760 c         1 MOL      0.539317
     77 O12         2.3360   -1.2880   -4.2680 o         1 MOL     -0.535872
     78 H34         2.7480   -3.6850   -0.8310 hn        1 MOL      0.141896
     79 H35         2.1870   -3.8800   -3.6110 h1        1 MOL      0.079343
     80 H36         3.6310   -3.2120   -2.9120 h1        1 MOL      0.079343
     81 N9          1.3020   -1.0450   -2.2530 n         1 MOL     -0.391205
     82 C25         0.5420    0.1460   -2.6490 c3        1 MOL      0.049856
     83 C26        -0.7610    0.1990   -1.8820 c         1 MOL      0.398689
     84 O13        -0.7190   -0.0280   -0.6760 o         1 MOL     -0.494194
     85 C27         1.4710    1.3600   -2.5820 c3        1 MOL     -0.055657
     86 C28         0.8560    2.6640   -3.0940 ca        1 MOL      0.092921
     87 C29         0.5650    2.8980   -4.4220 ca        1 MOL     -0.134220
     88 C30         0.4660    3.5800   -2.1960 ca        1 MOL     -0.134220
     89 C31         0.0390    4.1510   -4.8700 ca        1 MOL     -0.349739
     90 C32        -0.0190    4.8770   -2.6320 ca        1 MOL     -0.349739
     91 C33        -0.2380    5.1710   -3.9800 ca        1 MOL      0.458091
     92 O14        -0.8160    6.3210   -4.3990 oh        1 MOL     -0.489409
     93 H37         1.2380   -1.4220   -1.3180 hn        1 MOL      0.291268
     94 H38         0.2900    0.0230   -3.7120 h1        1 MOL      0.056298
     95 H39         2.4410    1.1790   -3.0290 hc        1 MOL      0.046192
     96 H40         1.6060    1.3760   -1.4980 hc        1 MOL      0.046192
     97 H41         0.6410    2.1320   -5.1770 ha        1 MOL      0.136227
     98 H42         0.5930    3.3800   -1.1410 ha        1 MOL      0.136227
     99 H43        -0.0640    4.3230   -5.9330 ha        1 MOL      0.162069
    100 H44        -0.2430    5.6430   -1.9070 ha        1 MOL      0.162069
    101 H45        -1.0740    6.8530   -3.6460 ho        1 MOL      0.361492
    102 N10        -1.8020    0.6380   -2.5440 n         1 MOL     -0.265723
    103 C34        -3.1380    0.8430   -2.0280 c3        1 MOL     -0.626311
    104 C35        -3.7630   -0.4440   -1.6230 c         1 MOL      0.639146
    105 O15        -4.4530   -0.5820   -0.6940 o         1 MOL     -0.508580
    106 C36        -3.9270    1.7750   -3.0360 c3        1 MOL      0.086398
    107 C37        -3.2130    3.0070   -3.6170 c3        1 MOL      0.289950
    108 C38        -5.2550    2.2310   -2.2940 c3        1 MOL     -0.202050
    109 C39        -3.8290    3.7410   -4.7540 c3        1 MOL     -0.291591
    110 H46        -1.6840    0.8300   -3.5320 hn        1 MOL      0.250107
    111 H47        -2.9850    1.4350   -1.1200 h1        1 MOL      0.264220
    112 H48        -4.2340    1.1610   -3.8750 hc        1 MOL      0.016775
    113 H49        -2.2650    2.7010   -4.0680 hc        1 MOL     -0.034794
    114 H50        -2.9700    3.7290   -2.8360 hc        1 MOL     -0.034794
    115 H51        -5.7010    2.9990   -2.9250 hc        1 MOL      0.058726
    116 H52        -5.8770    1.3470   -2.1550 hc        1 MOL      0.058726
    117 H53        -4.9620    2.6150   -1.3100 hc        1 MOL      0.058726
    118 H54        -4.3490    3.0710   -5.4370 hc        1 MOL      0.072819
    119 H55        -4.4920    4.4570   -4.2850 hc        1 MOL      0.072819
    120 H56        -3.0670    4.2650   -5.3300 hc        1 MOL      0.072819
    121 N11        -3.4250   -1.4890   -2.4000 n         1 MOL     -0.157641
    122 C40        -3.8260   -2.9310   -2.1610 c3        1 MOL     -0.110948
    123 C41        -5.3500   -3.0770   -2.1020 c         1 MOL      0.387840
    124 O16        -5.7870   -3.8650   -1.3180 o         1 MOL     -0.478518
    125 C42        -3.2550   -3.9000   -3.1450 c3        1 MOL      0.272392
    126 O17        -2.0030   -3.5170   -3.6590 oh        1 MOL     -0.629470
    127 H57        -2.9240   -1.4090   -3.2710 hn        1 MOL      0.232382
    128 H58        -3.3930   -3.2300   -1.2020 h1        1 MOL      0.059126
    129 H59        -3.9780   -4.0000   -3.9560 h1        1 MOL      0.024296
    130 H60        -3.1630   -4.9090   -2.7350 h1        1 MOL      0.024296
    131 H61        -1.3610   -4.1480   -3.3220 ho        1 MOL      0.383079
    132 N12        -6.1070   -2.2550   -2.8660 n         1 MOL     -0.348471
    133 C43        -7.5050   -1.9680   -2.6970 c3        1 MOL      0.072844
    134 C44        -8.0000   -1.7960   -1.2200 c         1 MOL      0.518185
    135 O18        -9.1710   -2.0830   -1.0520 o         1 MOL     -0.525615
    136 C45        -8.1490   -3.1300   -3.4120 c3        1 MOL     -0.324257
    137 H62        -5.6010   -1.6540   -3.5030 hn        1 MOL      0.230255
    138 H63        -7.6970   -1.0950   -3.3280 h1        1 MOL      0.090943
    139 H64        -8.0520   -4.0840   -2.8900 hc        1 MOL      0.100781
    140 H65        -9.2100   -2.9100   -3.4420 hc        1 MOL      0.100781
    141 H66        -7.8810   -3.3100   -4.4470 hc        1 MOL      0.100781
    142 N13        -7.1640   -1.4630   -0.2290 n         1 MOL     -0.486259
    143 C46        -7.6120   -1.1080    1.1290 c3        1 MOL      0.333867
    144 C47        -7.9530    0.4220    1.2620 c         1 MOL      0.389948
    145 O19        -7.3100    1.2710    0.6640 o         1 MOL     -0.490986
    146 C48        -6.5280   -1.6050    2.1410 c3        1 MOL     -0.369834
    147 H67        -6.1870   -1.4210   -0.4740 hn        1 MOL      0.325335
    148 H68        -8.5180   -1.6030    1.4740 h1        1 MOL      0.008565
    149 H69        -5.5130   -1.3530    1.8200 hc        1 MOL      0.096456
    150 H70        -6.8550   -1.2720    3.1220 hc        1 MOL      0.096456
    151 H71        -6.5610   -2.6880    2.0020 hc        1 MOL      0.096456
    152 N14        -8.9270    0.7220    2.0870 n         1 MOL     -0.455414
    153 C49        -9.4810    2.0170    2.3730 c3        1 MOL      0.080068
    154 C50        -9.7460    2.8290    1.1030 c         1 MOL      0.419277
    155 O20        -9.4000    4.0270    1.0490 o         1 MOL     -0.518227
    156 C51        -8.6500    2.8480    3.4180 c3        1 MOL      0.205546
    157 C52        -8.3570    2.0520    4.6980 c3        1 MOL     -0.172555
    158 C53        -9.5030    2.3070    5.7080 c         1 MOL      0.631512
    159 O21       -10.3150    1.3660    6.0330 o         1 MOL     -0.650467
    160 O22        -9.6540    3.4850    6.1510 o         1 MOL     -0.650467
    161 H72        -9.4110   -0.0340    2.5600 hn        1 MOL      0.297000
    162 H73       -10.4760    1.8130    2.7620 h1        1 MOL      0.050822
    163 H74        -9.1860    3.7590    3.6650 hc        1 MOL     -0.016122
    164 H75        -7.7160    3.1410    2.9510 hc        1 MOL     -0.016122
    165 H76        -7.3870    2.3550    5.0880 hc        1 MOL     -0.010455
    166 H77        -8.2580    0.9680    4.5550 hc        1 MOL     -0.010455
    167 N15       -10.2240    2.2980   -0.0220 n         1 MOL     -0.303949
    168 C54       -10.4110    3.0130   -1.2870 c3        1 MOL      0.009594
    169 H78        -9.8290    3.9350   -1.2720 h1        1 MOL      0.044599
    170 H79       -10.0760    2.3860   -2.1130 h1        1 MOL      0.044599
    171 H80       -11.4670    3.2510   -1.4170 h1        1 MOL      0.044599
    172 H81       -10.2580    1.2940   -0.0680 hn        1 MOL      0.207637
    173 Ca1        -0.5750    0.0140    2.0610 Ca        1 MOL      1.772038
    174 O23        -3.1500    0.2820    1.3450 oh        1 MOL     -0.806909
    175 H82        -3.8530   -0.0490    0.7840 ho        1 MOL      0.405427
    176 H83        -3.5800    0.8760    1.9640 ho        1 MOL      0.405427
    177 O24        -0.4560    1.9460    4.2040 oh        1 MOL     -0.806909
    178 H84        -1.1330    2.5740    4.4700 ho        1 MOL      0.405427
    179 H85         0.0390    1.7850    5.0020 ho        1 MOL      0.405427
    180 O25        -0.9790    2.5100    1.1450 oh        1 MOL     -0.806909
    181 H86        -0.2000    3.0660    1.1860 ho        1 MOL      0.405427
    182 H87        -1.6990    3.1270    0.9790 ho        1 MOL      0.405427
    183 O26         1.0570   -0.8530    3.9100 oh        1 MOL     -0.806909
    184 H88         0.9150   -1.5990    4.4940 ho        1 MOL      0.405427
    185 H89         1.9710   -0.6000    4.0800 ho        1 MOL      0.405427
    186 O27        -2.1750   -0.7910    4.0790 oh        1 MOL     -0.806909
    187 H90        -1.8510   -0.4750    4.9220 ho        1 MOL      0.405427
    188 H91        -2.3170   -1.7290    4.2150 ho        1 MOL      0.405427
@<TRIPOS>BOND
     1    1    2 1   
     2    1    4 1   
     3    1    5 1   
     4    1    6 1   
     5    2    3 2   
     6    2    7 1   
     7    7    8 1   
     8    7   15 1   
     9    8    9 1   
    10    8   11 1   
    11    8   16 1   
    12    9   10 2   
    13    9   19 1   
    14   11   12 1   
    15   11   17 1   
    16   11   18 1   
    17   12   13 1   
    18   12   14 1   
    19   19   20 1   
    20   19   28 1   
    21   20   21 1   
    22   20   23 1   
    23   20   29 1   
    24   21   22 2   
    25   21   41 1   
    26   23   24 1   
    27   23   30 1   
    28   23   31 1   
    29   24   25 1   
    30   24   32 1   
    31   24   33 1   
    32   25   26 1   
    33   25   34 1   
    34   25   35 1   
    35   26   27 1   
    36   26   36 1   
    37   26   37 1   
    38   27   38 1   
    39   27   39 1   
    40   27   40 1   
    41   41   42 1   
    42   41   49 1   
    43   42   43 1   
    44   42   45 1   
    45   42   50 1   
    46   43   44 2   
    47   43   53 1   
    48   45   46 1   
    49   45   51 1   
    50   45   52 1   
    51   46   47 1   
    52   46   48 1   
    53   53   54 1   
    54   53   57 1   
    55   54   55 1   
    56   54   58 1   
    57   54   59 1   
    58   55   56 2   
    59   55   60 1   
    60   60   61 1   
    61   60   68 1   
    62   61   62 1   
    63   61   64 1   
    64   61   69 1   
    65   62   63 2   
    66   62   74 1   
    67   64   65 1   
    68   64   70 1   
    69   64   71 1   
    70   65   66 1   
    71   65   67 2   
    72   66   72 1   
    73   66   73 1   
    74   74   75 1   
    75   74   78 1   
    76   75   76 1   
    77   75   79 1   
    78   75   80 1   
    79   76   77 2   
    80   76   81 1   
    81   81   82 1   
    82   81   93 1   
    83   82   83 1   
    84   82   85 1   
    85   82   94 1   
    86   83   84 2   
    87   83  102 1   
    88   85   86 1   
    89   85   95 1   
    90   85   96 1   
    91   86   87 ar  
    92   86   88 ar  
    93   87   89 ar  
    94   87   97 1   
    95   88   90 ar  
    96   88   98 1   
    97   89   91 ar  
    98   89   99 1   
    99   90   91 ar  
   100   90  100 1   
   101   91   92 1   
   102   92  101 1   
   103  102  103 1   
   104  102  110 1   
   105  103  104 1   
   106  103  106 1   
   107  103  111 1   
   108  104  105 2   
   109  104  121 1   
   110  106  107 1   
   111  106  108 1   
   112  106  112 1   
   113  107  109 1   
   114  107  113 1   
   115  107  114 1   
   116  108  115 1   
   117  108  116 1   
   118  108  117 1   
   119  109  118 1   
   120  109  119 1   
   121  109  120 1   
   122  121  122 1   
   123  121  127 1   
   124  122  123 1   
   125  122  125 1   
   126  122  128 1   
   127  123  124 2   
   128  123  132 1   
   129  125  126 1   
   130  125  129 1   
   131  125  130 1   
   132  126  131 1   
   133  132  133 1   
   134  132  137 1   
   135  133  134 1   
   136  133  136 1   
   137  133  138 1   
   138  134  135 2   
   139  134  142 1   
   140  136  139 1   
   141  136  140 1   
   142  136  141 1   
   143  142  143 1   
   144  142  147 1   
   145  143  144 1   
   146  143  146 1   
   147  143  148 1   
   148  144  145 2   
   149  144  152 1   
   150  146  149 1   
   151  146  150 1   
   152  146  151 1   
   153  152  153 1   
   154  152  161 1   
   155  153  154 1   
   156  153  156 1   
   157  153  162 1   
   158  154  155 2   
   159  154  167 1   
   160  156  157 1   
   161  156  163 1   
   162  156  164 1   
   163  157  158 1   
   164  157  165 1   
   165  157  166 1   
   166  158  159 1   
   167  158  160 1   
   168  167  168 1   
   169  167  172 1   
   170  168  169 1   
   171  168  170 1   
   172  168  171 1   
   173  174  175 1   
   174  174  176 1   
   175  177  178 1   
   176  177  179 1   
   177  180  181 1   
   178  180  182 1   
   179  183  184 1   
   180  183  185 1   
   181  186  187 1   
   182  186  188 1   
@<TRIPOS>SUBSTRUCTURE
     1 MOL         1 TEMP              0 ****  ****    0 ROOT
