@<TRIPOS>MOLECULE
MOL
  192   187     1     0     0
SMALL
resp


@<TRIPOS>ATOM
      1 C1          9.6310    1.6030    1.0090 c3        1 MOL     -0.507667
      2 C2          8.4370    0.8900    0.3750 c         1 MOL      0.668510
      3 O1          7.5530    0.4670    1.1800 o         1 MOL     -0.635104
      4 H1          9.2730    2.3290    1.7400 hc        1 MOL      0.136136
      5 H2         10.2700    0.8720    1.5050 hc        1 MOL      0.136136
      6 H3         10.2000    2.1180    0.2350 hc        1 MOL      0.136136
      7 N1          8.3500    0.8090   -0.9760 n         1 MOL     -0.375058
      8 C3          7.1890    0.1660   -1.7400 c3        1 MOL     -0.054014
      9 C4          7.0130   -1.3540   -1.5260 c         1 MOL      0.430678
     10 O2          6.9620   -2.1620   -2.4980 o         1 MOL     -0.435197
     11 C5          7.1860    0.5130   -3.2580 c3        1 MOL     -0.083967
     12 C6          8.5060    0.0540   -3.9400 c         1 MOL      0.625714
     13 O3          9.6160    0.5590   -3.5510 o         1 MOL     -0.620680
     14 O4          8.4230   -0.6510   -4.9930 o         1 MOL     -0.620680
     15 H4          9.1130    1.1980   -1.5130 hn        1 MOL      0.214561
     16 H5          6.2990    0.5680   -1.2510 h1        1 MOL      0.069738
     17 H6          7.0980    1.5950   -3.3030 hc        1 MOL      0.051432
     18 H7          6.2860    0.1530   -3.7700 hc        1 MOL      0.051432
     19 N2          6.8500   -1.8140   -0.3350 n         1 MOL     -0.394014
     20 C7          6.5320   -3.1920   -0.0760 c3        1 MOL      0.073584
     21 C8          5.0630   -3.6240   -0.2250 c         1 MOL      0.367586
     22 O5          4.8450   -4.7690   -0.6620 o         1 MOL     -0.528412
     23 C9          6.9220   -3.6290    1.3120 c3        1 MOL      0.027163
     24 C10         8.4530   -3.4360    1.5730 c3        1 MOL     -0.033975
     25 C11         8.8430   -3.8590    3.0330 c3        1 MOL      0.011948
     26 C12        10.3380   -3.8210    3.2000 c3        1 MOL      0.154321
     27 N3         10.7770   -3.9960    4.5930 n4        1 MOL     -0.257416
     28 H8          6.8840   -1.1370    0.4100 hn        1 MOL      0.255567
     29 H9          7.1290   -3.7290   -0.8110 h1        1 MOL      0.087863
     30 H10         6.6750   -4.6770    1.4800 hc        1 MOL      0.018491
     31 H11         6.3220   -3.1130    2.0670 hc        1 MOL      0.018491
     32 H12         8.7160   -2.3820    1.3940 hc        1 MOL      0.024874
     33 H13         8.9420   -4.1460    0.9120 hc        1 MOL      0.024874
     34 H14         8.3670   -4.7930    3.3260 hc        1 MOL     -0.001970
     35 H15         8.4020   -3.0190    3.5740 hc        1 MOL     -0.001970
     36 H16        10.6620   -2.8830    2.7490 hx        1 MOL      0.040216
     37 H17        10.8580   -4.5610    2.6010 hx        1 MOL      0.040216
     38 H18        10.2910   -3.2680    5.0970 hn        1 MOL      0.248711
     39 H19        10.5440   -4.8920    4.9940 hn        1 MOL      0.248711
     40 H20        11.7300   -3.7540    4.8400 hn        1 MOL      0.248711
     41 N4          4.0990   -2.7800    0.0020 n         1 MOL     -0.225342
     42 C13         4.0160   -1.5690    0.8030 c3        1 MOL      0.084484
     43 C14         4.0140   -0.2830   -0.0200 c         1 MOL      0.131866
     44 O6          3.7910   -0.3550   -1.2560 o         1 MOL     -0.366940
     45 C15         2.8420   -1.4960    1.7300 c3        1 MOL     -0.335895
     46 C16         1.4630   -1.7660    1.0620 c         1 MOL      0.752553
     47 O7          1.0590   -1.1070    0.0820 o         1 MOL     -0.697665
     48 O8          0.8060   -2.7810    1.4900 o         1 MOL     -0.697665
     49 H21         3.2310   -3.2360   -0.2420 hn        1 MOL      0.297194
     50 H22         4.9180   -1.4910    1.4190 h1        1 MOL      0.092374
     51 H23         2.7720   -0.5450    2.2710 hc        1 MOL      0.060357
     52 H24         3.1360   -2.1690    2.5280 hc        1 MOL      0.060357
     53 N5          4.2890    0.8760    0.5480 n         1 MOL     -0.063363
     54 C17         4.2020    2.1900   -0.1370 c3        1 MOL     -0.175117
     55 C18         2.8120    2.5660   -0.7180 c         1 MOL      0.639101
     56 O9          1.7210    1.9550   -0.4410 o         1 MOL     -0.706924
     57 H25         4.4960    0.9120    1.5310 hn        1 MOL      0.224568
     58 H26         4.9620    2.2510   -0.9160 h1        1 MOL      0.083760
     59 H27         4.4010    2.9670    0.5920 h1        1 MOL      0.083760
     60 N6          2.7730    3.6140   -1.5860 n         1 MOL     -0.498439
     61 C19         1.5740    4.2520   -2.0990 c3        1 MOL      0.206696
     62 C20         1.7550    5.7910   -2.1470 c         1 MOL      0.488809
     63 O10         2.8220    6.2860   -1.9000 o         1 MOL     -0.531147
     64 C21         1.2290    3.6960   -3.4750 c3        1 MOL      0.017865
     65 C22         0.0110    2.8750   -3.6490 c         1 MOL      0.596177
     66 O11        -0.3970    2.3920   -4.7410 o         1 MOL     -0.676908
     67 O12        -0.6480    2.5840   -2.6010 o         1 MOL     -0.676908
     68 H28         3.5780    4.1900   -1.7930 hn        1 MOL      0.282930
     69 H29         0.7230    4.0580   -1.4570 h1        1 MOL      0.134074
     70 H30         2.1210    3.1620   -3.8150 hc        1 MOL      0.005278
     71 H31         1.1150    4.4780   -4.2160 hc        1 MOL      0.005278
     72 N7          0.7480    6.6320   -2.4620 n         1 MOL     -0.545958
     73 C23        -0.7200    6.2830   -2.3730 c3        1 MOL     -0.094343
     74 C24        -1.1660    5.9760   -0.9430 c         1 MOL      0.571629
     75 O13        -0.5470    6.4440    0.0440 o         1 MOL     -0.494470
     76 H32         0.9730    7.6090   -2.3200 hn        1 MOL      0.346515
     77 H33        -1.0200    5.5340   -3.1020 h1        1 MOL      0.104296
     78 H34        -1.2950    7.1730   -2.6520 h1        1 MOL      0.104296
     79 N8         -2.3180    5.3030   -0.8690 n         1 MOL     -0.592904
     80 C25        -2.8670    4.7180    0.3620 c3        1 MOL      0.130404
     81 C26        -1.9100    3.6790    0.9670 c         1 MOL      0.745815
     82 O14        -1.3450    2.9390    0.2250 o         1 MOL     -0.725961
     83 C27        -4.3010    4.1070    0.2020 c3        1 MOL      0.536336
     84 C28        -5.2500    5.2290    0.3280 c3        1 MOL     -0.342062
     85 O15        -4.7480    3.2180    1.1360 oh        1 MOL     -0.662236
     86 H35        -2.7730    5.0880   -1.7420 hn        1 MOL      0.295210
     87 H36        -2.9600    5.4780    1.1470 h1        1 MOL      0.015182
     88 H37        -4.3140    3.6930   -0.8080 h1        1 MOL     -0.059015
     89 H38        -5.4190    2.7380    0.6480 ho        1 MOL      0.350939
     90 H39        -6.2340    4.8890    0.0180 hc        1 MOL      0.073117
     91 H40        -5.2070    5.5900    1.3560 hc        1 MOL      0.073117
     92 H41        -4.8960    6.0650   -0.2770 hc        1 MOL      0.073117
     93 N9         -1.7660    3.6000    2.3250 n         1 MOL     -0.609518
     94 C29        -0.8460    2.6580    3.0410 c3        1 MOL     -0.089709
     95 C30        -1.1100    1.1710    2.7190 c         1 MOL      0.617925
     96 O16        -0.7950    0.6690    1.6210 o         1 MOL     -0.480252
     97 C31         0.6790    3.0110    2.8240 c3        1 MOL      0.005724
     98 C32         0.9300    4.5160    3.1870 c3        1 MOL      0.081870
     99 C33         1.6220    2.1240    3.6590 c3        1 MOL     -0.493684
    100 C34         2.2470    5.1640    2.5930 c3        1 MOL     -0.168744
    101 H42        -2.4490    4.0580    2.9160 hn        1 MOL      0.334142
    102 H43        -1.0660    2.7880    4.1040 h1        1 MOL      0.079697
    103 H44         0.9360    2.9680    1.7610 hc        1 MOL      0.212112
    104 H45         0.9350    4.7580    4.2500 hc        1 MOL     -0.012736
    105 H46         0.1080    5.0000    2.6570 hc        1 MOL     -0.012736
    106 H47         2.6540    2.4120    3.8250 hc        1 MOL      0.128488
    107 H48         1.1650    2.0190    4.6400 hc        1 MOL      0.128488
    108 H49         1.6570    1.1220    3.2190 hc        1 MOL      0.128488
    109 H50         2.0730    5.0310    1.5280 hc        1 MOL      0.043785
    110 H51         2.3870    6.1820    2.9460 hc        1 MOL      0.043785
    111 H52         3.0880    4.5390    2.8880 hc        1 MOL      0.043785
    112 N10        -1.9180    0.5700    3.6970 n         1 MOL     -0.508764
    113 C35        -2.1140   -0.8570    3.7730 c3        1 MOL      0.072763
    114 C36        -3.5460   -1.3500    3.3290 c         1 MOL      0.658635
    115 O17        -3.7940   -2.5780    3.2360 o         1 MOL     -0.579700
    116 C37        -1.8950   -1.4070    5.1630 c3        1 MOL      0.335885
    117 C38        -3.0320   -1.1160    6.1770 c3        1 MOL     -0.245577
    118 O18        -0.6540   -0.8620    5.6860 oh        1 MOL     -0.641487
    119 H53        -2.1770    1.1330    4.4900 hn        1 MOL      0.326963
    120 H54        -1.4560   -1.3080    3.0350 h1        1 MOL      0.026586
    121 H55        -1.7120   -2.4820    5.0650 h1        1 MOL     -0.003231
    122 H56         0.0220   -1.3190    5.1870 ho        1 MOL      0.401944
    123 H57        -3.2420   -0.0590    6.0490 hc        1 MOL      0.067035
    124 H58        -3.8970   -1.7390    5.9520 hc        1 MOL      0.067035
    125 H59        -2.8440   -1.2330    7.2400 hc        1 MOL      0.067035
    126 N11        -4.4230   -0.4280    3.1130 n         1 MOL     -0.451082
    127 C39        -5.8370   -0.6730    2.6110 c3        1 MOL     -0.220683
    128 C40        -5.8610   -1.1810    1.1620 c         1 MOL      0.426068
    129 O19        -5.0060   -0.7240    0.4180 o         1 MOL     -0.423444
    130 C41        -6.6010    0.6030    2.8040 c3        1 MOL      0.333123
    131 C42        -8.1540    0.4370    2.6250 c3        1 MOL     -0.489664
    132 O20        -6.4810    0.9810    4.1360 oh        1 MOL     -0.607013
    133 H60        -4.2410    0.5090    3.4340 hn        1 MOL      0.258898
    134 H61        -6.2280   -1.4350    3.2840 h1        1 MOL      0.135230
    135 H62        -6.2510    1.4040    2.1610 h1        1 MOL      0.140364
    136 H63        -6.9850    0.3320    4.6290 ho        1 MOL      0.406707
    137 H64        -8.4050    0.4470    1.5730 hc        1 MOL      0.127751
    138 H65        -8.4970   -0.5190    3.0450 hc        1 MOL      0.127751
    139 H66        -8.6180    1.3180    3.0710 hc        1 MOL      0.127751
    140 N12        -6.7500   -2.1760    0.8840 n         1 MOL     -0.380586
    141 C43        -6.8940   -2.8490   -0.4360 c3        1 MOL      0.030597
    142 C44        -5.6290   -2.9520   -1.2920 c         1 MOL      0.496895
    143 O21        -5.5510   -2.4440   -2.3880 o         1 MOL     -0.552834
    144 C45        -7.9470   -2.0630   -1.2030 c3        1 MOL     -0.047389
    145 C46        -9.3490   -1.9320   -0.5590 c3        1 MOL     -0.137773
    146 C47       -10.5190   -1.7060   -1.5750 c3        1 MOL     -0.134865
    147 C48       -10.9400   -0.2040   -1.7200 c3        1 MOL     -0.023901
    148 N13       -11.9040   -0.1020   -2.8930 n4        1 MOL     -0.219641
    149 H67        -7.2040   -2.5730    1.6960 hn        1 MOL      0.270072
    150 H68        -7.2720   -3.8470   -0.2300 h1        1 MOL      0.061338
    151 H69        -8.1010   -2.5460   -2.1700 hc        1 MOL      0.061998
    152 H70        -7.5940   -1.0890   -1.5350 hc        1 MOL      0.061998
    153 H71        -9.3390   -1.1570    0.2130 hc        1 MOL      0.057410
    154 H72        -9.5940   -2.8950   -0.1180 hc        1 MOL      0.057410
    155 H73       -11.3540   -2.4030   -1.4750 hc        1 MOL      0.095820
    156 H74       -10.1610   -1.9970   -2.5630 hc        1 MOL      0.095820
    157 H75       -10.1080    0.4430   -1.9790 hx        1 MOL      0.098868
    158 H76       -11.3760    0.2990   -0.8620 hx        1 MOL      0.098868
    159 H77       -12.8340   -0.4710   -2.7950 hn        1 MOL      0.216912
    160 H78       -11.9960    0.8640   -3.1770 hn        1 MOL      0.216912
    161 H79       -11.5440   -0.6090   -3.6840 hn        1 MOL      0.216912
    162 N14        -4.5780   -3.5250   -0.7580 n         1 MOL     -0.357097
    163 C49        -3.2090   -3.5110   -1.4830 c3        1 MOL      0.056771
    164 C50        -2.1460   -2.9840   -0.6070 c         1 MOL      0.600406
    165 O22        -1.7020   -1.8690   -0.8660 o         1 MOL     -0.713686
    166 C51        -3.0520   -4.8530   -2.2600 c3        1 MOL      0.003136
    167 C52        -4.1600   -4.9890   -3.3150 c3        1 MOL     -0.098153
    168 C53        -4.0390   -6.1810   -4.2600 c         1 MOL      0.620037
    169 O23        -3.1000   -6.1210   -5.0630 o         1 MOL     -0.617463
    170 O24        -4.8210   -7.1650   -4.1290 o         1 MOL     -0.617463
    171 H80        -4.6440   -3.9280    0.1620 hn        1 MOL      0.267975
    172 H81        -3.2270   -2.7490   -2.2590 h1        1 MOL      0.127239
    173 H82        -3.0600   -5.6240   -1.4880 hc        1 MOL      0.030025
    174 H83        -2.1150   -4.8910   -2.8210 hc        1 MOL      0.030025
    175 H84        -4.0950   -4.0290   -3.8190 hc        1 MOL      0.007861
    176 H85        -5.1230   -5.1220   -2.8250 hc        1 MOL      0.007861
    177 N15        -1.5090   -3.6900    0.3140 n         1 MOL     -0.444494
    178 C54        -1.7990   -4.9940    0.8570 c3        1 MOL      0.011994
    179 H86        -0.8660   -5.5330    1.0230 h1        1 MOL      0.025555
    180 H87        -2.3280   -4.8850    1.8030 h1        1 MOL      0.025555
    181 H88        -2.4200   -5.5510    0.1550 h1        1 MOL      0.025555
    182 H89        -0.6410   -3.2940    0.6500 hn        1 MOL      0.386040
    183 Ca1        -0.4440    0.5150   -1.0600 Ca        1 MOL      1.825741
    184 O25        -3.2000    0.7860   -1.1180 oh        1 MOL     -0.815942
    185 H90        -3.8250    0.1750   -0.7140 ho        1 MOL      0.387652
    186 H91        -3.7610    1.4190   -1.5710 ho        1 MOL      0.387652
    187 O26         1.5160   -0.4610   -2.6490 oh        1 MOL     -0.815942
    188 H92         1.5110   -1.1150   -3.3470 ho        1 MOL      0.387652
    189 H93         2.4350   -0.4110   -2.3750 ho        1 MOL      0.387652
    190 O27        -1.4570    0.1130   -3.6280 oh        1 MOL     -0.815942
    191 H94        -2.3240   -0.1010   -3.9550 ho        1 MOL      0.387652
    192 H95        -1.1810    0.8720   -4.1320 ho        1 MOL      0.387652
@<TRIPOS>BOND
     1    1    2 1   
     2    1    4 1   
     3    1    5 1   
     4    1    6 1   
     5    2    3 2   
     6    2    7 1   
     7    7    8 1   
     8    7   15 1   
     9    8    9 1   
    10    8   11 1   
    11    8   16 1   
    12    9   10 2   
    13    9   19 1   
    14   11   12 1   
    15   11   17 1   
    16   11   18 1   
    17   12   13 1   
    18   12   14 1   
    19   19   20 1   
    20   19   28 1   
    21   20   21 1   
    22   20   23 1   
    23   20   29 1   
    24   21   22 2   
    25   21   41 1   
    26   23   24 1   
    27   23   30 1   
    28   23   31 1   
    29   24   25 1   
    30   24   32 1   
    31   24   33 1   
    32   25   26 1   
    33   25   34 1   
    34   25   35 1   
    35   26   27 1   
    36   26   36 1   
    37   26   37 1   
    38   27   38 1   
    39   27   39 1   
    40   27   40 1   
    41   41   42 1   
    42   41   49 1   
    43   42   43 1   
    44   42   45 1   
    45   42   50 1   
    46   43   44 2   
    47   43   53 1   
    48   45   46 1   
    49   45   51 1   
    50   45   52 1   
    51   46   47 1   
    52   46   48 1   
    53   53   54 1   
    54   53   57 1   
    55   54   55 1   
    56   54   58 1   
    57   54   59 1   
    58   55   56 2   
    59   55   60 1   
    60   60   61 1   
    61   60   68 1   
    62   61   62 1   
    63   61   64 1   
    64   61   69 1   
    65   62   63 2   
    66   62   72 1   
    67   64   65 1   
    68   64   70 1   
    69   64   71 1   
    70   65   66 1   
    71   65   67 1   
    72   72   73 1   
    73   72   76 1   
    74   73   74 1   
    75   73   77 1   
    76   73   78 1   
    77   74   75 2   
    78   74   79 1   
    79   79   80 1   
    80   79   86 1   
    81   80   81 1   
    82   80   83 1   
    83   80   87 1   
    84   81   82 2   
    85   81   93 1   
    86   83   84 1   
    87   83   85 1   
    88   83   88 1   
    89   84   90 1   
    90   84   91 1   
    91   84   92 1   
    92   85   89 1   
    93   93   94 1   
    94   93  101 1   
    95   94   95 1   
    96   94   97 1   
    97   94  102 1   
    98   95   96 2   
    99   95  112 1   
   100   97   98 1   
   101   97   99 1   
   102   97  103 1   
   103   98  100 1   
   104   98  104 1   
   105   98  105 1   
   106   99  106 1   
   107   99  107 1   
   108   99  108 1   
   109  100  109 1   
   110  100  110 1   
   111  100  111 1   
   112  112  113 1   
   113  112  119 1   
   114  113  114 1   
   115  113  116 1   
   116  113  120 1   
   117  114  115 2   
   118  114  126 1   
   119  116  117 1   
   120  116  118 1   
   121  116  121 1   
   122  117  123 1   
   123  117  124 1   
   124  117  125 1   
   125  118  122 1   
   126  126  127 1   
   127  126  133 1   
   128  127  128 1   
   129  127  130 1   
   130  127  134 1   
   131  128  129 2   
   132  128  140 1   
   133  130  131 1   
   134  130  132 1   
   135  130  135 1   
   136  131  137 1   
   137  131  138 1   
   138  131  139 1   
   139  132  136 1   
   140  140  141 1   
   141  140  149 1   
   142  141  142 1   
   143  141  144 1   
   144  141  150 1   
   145  142  143 2   
   146  142  162 1   
   147  144  145 1   
   148  144  151 1   
   149  144  152 1   
   150  145  146 1   
   151  145  153 1   
   152  145  154 1   
   153  146  147 1   
   154  146  155 1   
   155  146  156 1   
   156  147  148 1   
   157  147  157 1   
   158  147  158 1   
   159  148  159 1   
   160  148  160 1   
   161  148  161 1   
   162  162  163 1   
   163  162  171 1   
   164  163  164 1   
   165  163  166 1   
   166  163  172 1   
   167  164  165 2   
   168  164  177 1   
   169  166  167 1   
   170  166  173 1   
   171  166  174 1   
   172  167  168 1   
   173  167  175 1   
   174  167  176 1   
   175  168  169 1   
   176  168  170 1   
   177  177  178 1   
   178  177  182 1   
   179  178  179 1   
   180  178  180 1   
   181  178  181 1   
   182  184  185 1   
   183  184  186 1   
   184  187  188 1   
   185  187  189 1   
   186  190  191 1   
   187  190  192 1   
@<TRIPOS>SUBSTRUCTURE
     1 MOL         1 TEMP              0 ****  ****    0 ROOT
