@<TRIPOS>MOLECULE
MOL
  192   187     1     0     0
SMALL
resp


@<TRIPOS>ATOM
      1 C1         -6.5120   -3.1130    4.7540 c3        1 MOL     -0.291692
      2 C2         -5.6340   -2.5220    3.6720 c         1 MOL      0.695327
      3 O1         -5.0970   -3.2540    2.8200 o         1 MOL     -0.581333
      4 H1         -5.9320   -3.8200    5.3470 hc        1 MOL      0.073185
      5 H2         -6.8810   -2.3150    5.3990 hc        1 MOL      0.073185
      6 H3         -7.3550   -3.6300    4.2960 hc        1 MOL      0.073185
      7 N1         -5.4790   -1.2020    3.6730 n         1 MOL     -0.341905
      8 C3         -5.1240   -0.4100    2.4970 c3        1 MOL      0.021514
      9 C4         -3.6480   -0.4420    2.1000 c         1 MOL      0.040778
     10 O2         -3.3550    0.1790    1.1550 o         1 MOL      0.064522
     11 C5         -5.8330    0.9640    2.5750 c3        1 MOL     -0.079319
     12 C6         -6.5800    1.3870    3.8050 c         1 MOL      0.768446
     13 O3         -7.8010    1.4700    3.7470 o         1 MOL     -0.731508
     14 O4         -5.9320    1.7410    4.8050 o         1 MOL     -0.731508
     15 H4         -5.7210   -0.6740    4.5040 hn        1 MOL      0.186407
     16 H5         -5.6380   -0.9980    1.7260 h1        1 MOL      0.085415
     17 H6         -6.5020    1.0310    1.7280 hc        1 MOL     -0.031921
     18 H7         -5.0620    1.6670    2.2650 hc        1 MOL     -0.031921
     19 N2         -2.7820   -1.0880    2.9380 n         1 MOL     -0.106499
     20 C7         -1.3730   -0.9850    2.8230 c3        1 MOL      0.182080
     21 C8         -0.8150   -2.2920    2.2320 c         1 MOL      0.401494
     22 O5         -1.1440   -3.3610    2.7710 o         1 MOL     -0.518194
     23 C9         -0.6260   -0.3790    4.0180 c3        1 MOL     -0.221361
     24 C10        -0.9140    1.1710    4.1880 c3        1 MOL      0.468433
     25 C11         0.0560    1.9010    5.1040 c3        1 MOL     -0.023549
     26 C12        -0.2770    3.3430    5.5280 c3        1 MOL      0.131236
     27 N3         -1.4540    3.5120    6.3540 n4        1 MOL     -0.392949
     28 H8         -3.1190   -1.5580    3.7630 hn        1 MOL      0.176680
     29 H9         -1.2370   -0.2810    1.9990 h1        1 MOL     -0.150326
     30 H10         0.4110   -0.6090    3.7960 hc        1 MOL      0.056547
     31 H11        -0.9770   -0.8400    4.9340 hc        1 MOL      0.056547
     32 H12        -1.8850    1.3130    4.6570 hc        1 MOL     -0.189618
     33 H13        -0.9490    1.5900    3.1800 hc        1 MOL     -0.189618
     34 H14         0.9780    1.9940    4.5320 hc        1 MOL      0.006811
     35 H15         0.2470    1.2190    5.9430 hc        1 MOL      0.006811
     36 H16        -0.3020    3.9660    4.6340 hx        1 MOL      0.056706
     37 H17         0.5500    3.6760    6.1580 hx        1 MOL      0.056706
     38 H18        -1.3390    3.0800    7.2620 hn        1 MOL      0.326192
     39 H19        -1.6360    4.4930    6.4700 hn        1 MOL      0.326192
     40 H20        -2.2500    3.0400    5.9440 hn        1 MOL      0.326192
     41 N4          0.0260   -2.3240    1.1650 n         1 MOL     -0.048903
     42 C13         0.6460   -1.2230    0.4280 c3        1 MOL     -0.047921
     43 C14         1.2870   -0.0950    1.2210 c         1 MOL      0.241703
     44 O6          0.7470    1.0090    1.2770 o         1 MOL     -0.431915
     45 C15        -0.2510   -0.7120   -0.6830 c3        1 MOL     -0.256782
     46 C16        -0.4660   -1.7830   -1.8180 c         1 MOL      0.602438
     47 O7         -0.1770   -2.9650   -1.7040 o         1 MOL     -0.661020
     48 O8         -0.8450   -1.3540   -2.9340 o         1 MOL     -0.661020
     49 H21         0.1860   -3.2320    0.7540 hn        1 MOL      0.034786
     50 H22         1.5090   -1.6500   -0.1000 h1        1 MOL      0.021023
     51 H23         0.3140    0.0980   -1.1310 hc        1 MOL      0.106215
     52 H24        -1.1630   -0.2670   -0.2760 hc        1 MOL      0.106215
     53 N5          2.4660   -0.3110    1.8630 n         1 MOL     -0.164727
     54 C17         3.3230   -1.4510    1.7970 c3        1 MOL     -0.164139
     55 C18         4.2210   -1.5810    3.0830 c         1 MOL      0.435610
     56 O9          4.1090   -0.6490    3.9780 o         1 MOL     -0.535996
     57 H25         2.7710    0.5440    2.3010 hn        1 MOL      0.271493
     58 H26         3.9910   -1.1800    0.9810 h1        1 MOL      0.084609
     59 H27         2.7810   -2.3620    1.5440 h1        1 MOL      0.084609
     60 N6          5.1400   -2.5370    3.1270 n         1 MOL     -0.253277
     61 C19         5.5470   -3.4590    2.1460 c3        1 MOL     -0.013903
     62 C20         6.4700   -2.7530    1.1330 c         1 MOL      0.453245
     63 O10         7.2400   -1.8930    1.5590 o         1 MOL     -0.392525
     64 C21         6.1170   -4.7360    2.7280 c3        1 MOL     -0.068193
     65 C22         7.3150   -4.3760    3.6120 c         1 MOL      0.717273
     66 O11         7.0410   -4.0110    4.7650 o         1 MOL     -0.650604
     67 O12         8.4240   -4.5640    3.1790 o         1 MOL     -0.650604
     68 H28         5.6000   -2.6430    4.0180 hn        1 MOL      0.229893
     69 H29         4.6700   -3.8210    1.6190 h1        1 MOL     -0.019089
     70 H30         6.4830   -5.3750    1.9320 hc        1 MOL     -0.005132
     71 H31         5.3500   -5.2760    3.2920 hc        1 MOL     -0.005132
     72 N7          6.4790   -3.3450   -0.1180 n         1 MOL     -0.257593
     73 C23         7.3710   -2.8470   -1.1820 c3        1 MOL     -0.412496
     74 C24         6.9760   -1.3900   -1.5900 c         1 MOL      0.417751
     75 O13         7.8940   -0.5710   -1.8110 o         1 MOL     -0.511531
     76 H32         5.8250   -4.0790   -0.3320 hn        1 MOL      0.216866
     77 H33         7.2330   -3.3820   -2.1160 h1        1 MOL      0.198848
     78 H34         8.3770   -2.8400   -0.7750 h1        1 MOL      0.198848
     79 N8          5.7200   -0.9870   -1.5370 n         1 MOL     -0.103860
     80 C25         5.2260    0.3110   -1.9900 c3        1 MOL     -0.087281
     81 C26         5.2080    1.2460   -0.7510 c         1 MOL      0.387161
     82 O14         5.2510    0.8780    0.4090 o         1 MOL     -0.402806
     83 C27         3.7950    0.2400   -2.6070 c3        1 MOL      0.457027
     84 C28         3.8760   -0.6350   -3.8340 c3        1 MOL     -0.499819
     85 O15         3.3240    1.5390   -2.8300 oh        1 MOL     -0.558472
     86 H35         4.9760   -1.6600   -1.4760 hn        1 MOL      0.132815
     87 H36         5.8130    0.8380   -2.7490 h1        1 MOL      0.067885
     88 H37         3.0560   -0.2370   -1.9580 h1        1 MOL      0.069129
     89 H38         2.3890    1.3490   -2.8140 ho        1 MOL      0.362953
     90 H39         2.8650   -0.7000   -4.2330 hc        1 MOL      0.108708
     91 H40         4.5750   -0.1540   -4.5160 hc        1 MOL      0.108708
     92 H41         4.1730   -1.6560   -3.5920 hc        1 MOL      0.108708
     93 N9          5.1750    2.5190   -1.0390 n         1 MOL     -0.344941
     94 C29         5.3190    3.6150   -0.0790 c3        1 MOL     -0.108855
     95 C30         3.9960    4.4030    0.0120 c         1 MOL      0.440034
     96 O16         3.8400    5.1940    0.9810 o         1 MOL     -0.558147
     97 C31         6.5060    4.5290   -0.4450 c3        1 MOL      0.022695
     98 C32         6.2710    5.1290   -1.8540 c3        1 MOL      0.206004
     99 C33         7.8460    3.7680   -0.3240 c3        1 MOL     -0.033651
    100 C34         7.4040    5.9650   -2.3840 c3        1 MOL     -0.237138
    101 H42         5.1990    2.7290   -2.0250 hn        1 MOL      0.323932
    102 H43         5.5360    3.1510    0.8910 h1        1 MOL      0.140478
    103 H44         6.6940    5.3880    0.2010 hc        1 MOL      0.033770
    104 H45         5.3730    5.7500   -1.7740 hc        1 MOL     -0.033264
    105 H46         6.0740    4.3710   -2.6150 hc        1 MOL     -0.033264
    106 H47         8.6570    4.4660   -0.5290 hc        1 MOL      0.019021
    107 H48         8.0320    3.2700    0.6250 hc        1 MOL      0.019021
    108 H49         7.9620    3.0590   -1.1520 hc        1 MOL      0.019021
    109 H50         8.1950    5.2460   -2.6010 hc        1 MOL      0.046062
    110 H51         7.1290    6.5570   -3.2570 hc        1 MOL      0.046062
    111 H52         7.7490    6.6700   -1.6280 hc        1 MOL      0.046062
    112 N10         3.1200    4.2100   -0.9550 n         1 MOL     -0.062598
    113 C35         1.7530    4.6990   -1.0020 c3        1 MOL      0.006849
    114 C36         0.6240    3.6860   -0.9410 c         1 MOL      0.441631
    115 O17         0.7120    2.6080   -1.5500 o         1 MOL     -0.447255
    116 C37         1.4920    5.6650   -2.2420 c3        1 MOL      0.309731
    117 C38         1.6890    4.9680   -3.6170 c3        1 MOL     -0.237800
    118 O18         2.3390    6.7990   -2.0790 oh        1 MOL     -0.614363
    119 H53         3.4370    3.4920   -1.5810 hn        1 MOL      0.000259
    120 H54         1.6280    5.4380   -0.2150 h1        1 MOL      0.044445
    121 H55         0.4500    5.9800   -2.1510 h1        1 MOL     -0.021589
    122 H56         1.8260    7.5490   -2.3830 ho        1 MOL      0.393783
    123 H57         2.7300    4.7300   -3.8360 hc        1 MOL      0.062863
    124 H58         1.1100    4.0510   -3.6070 hc        1 MOL      0.062863
    125 H59         1.2750    5.5990   -4.3980 hc        1 MOL      0.062863
    126 N11        -0.4720    4.0340   -0.2740 n         1 MOL     -0.485005
    127 C39        -1.5020    3.0070    0.0320 c3        1 MOL      0.089313
    128 C40        -2.4940    2.8210   -1.1670 c         1 MOL      0.452871
    129 O19        -2.3940    3.4650   -2.2030 o         1 MOL     -0.535062
    130 C41        -2.3790    3.5380    1.1860 c3        1 MOL      0.162460
    131 C42        -2.9890    4.9770    0.8570 c3        1 MOL     -0.652991
    132 O20        -1.6200    3.7230    2.3960 oh        1 MOL     -0.485295
    133 H60        -0.5060    4.9720    0.0960 hn        1 MOL      0.319690
    134 H61        -1.0520    2.0220    0.2100 h1        1 MOL      0.171917
    135 H62        -3.2210    2.8900    1.4170 h1        1 MOL      0.150404
    136 H63        -2.2510    3.7010    3.1240 ho        1 MOL      0.326591
    137 H64        -3.7530    4.8700    0.0940 hc        1 MOL      0.170067
    138 H65        -3.4050    5.4050    1.7710 hc        1 MOL      0.170067
    139 H66        -2.3030    5.7060    0.4330 hc        1 MOL      0.170067
    140 N12        -3.5020    1.9170   -0.9930 n         1 MOL     -0.330364
    141 C43        -4.6510    1.6630   -1.9620 c3        1 MOL      0.172623
    142 C44        -4.8940    0.1820   -2.3320 c         1 MOL      0.458075
    143 O21        -5.4570   -0.0900   -3.3990 o         1 MOL     -0.578872
    144 C45        -5.8130    2.2510   -1.2020 c3        1 MOL     -0.057268
    145 C46        -6.9930    2.5940   -2.1140 c3        1 MOL     -0.298108
    146 C47        -6.8060    3.6520   -3.2050 c3        1 MOL     -0.236973
    147 C48        -6.5990    5.0970   -2.5830 c3        1 MOL      0.146971
    148 N13        -6.2030    6.1220   -3.5690 n4        1 MOL     -0.344492
    149 H67        -3.5130    1.3810   -0.1370 hn        1 MOL     -0.003376
    150 H68        -4.3760    2.2500   -2.8340 h1        1 MOL      0.059436
    151 H69        -5.4590    3.0830   -0.5800 hc        1 MOL      0.072880
    152 H70        -6.2580    1.5120   -0.5350 hc        1 MOL      0.072880
    153 H71        -7.9370    2.6560   -1.5690 hc        1 MOL      0.153927
    154 H72        -7.2170    1.6460   -2.6070 hc        1 MOL      0.153927
    155 H73        -7.6290    3.6120   -3.9150 hc        1 MOL      0.102817
    156 H74        -5.9570    3.3460   -3.8110 hc        1 MOL      0.102817
    157 H75        -5.9020    5.0640   -1.7460 hx        1 MOL      0.049392
    158 H76        -7.6050    5.3820   -2.2740 hx        1 MOL      0.049392
    159 H77        -6.9440    6.2290   -4.2410 hn        1 MOL      0.321764
    160 H78        -5.9110    7.0240   -3.2190 hn        1 MOL      0.321764
    161 H79        -5.3800    5.7960   -4.0440 hn        1 MOL      0.321764
    162 N14        -4.4230   -0.7880   -1.4990 n         1 MOL     -0.160165
    163 C49        -4.6660   -2.2350   -1.7640 c3        1 MOL     -0.150430
    164 C50        -6.1650   -2.6470   -1.4380 c         1 MOL      0.325546
    165 O22        -6.7960   -2.2420   -0.4650 o         1 MOL     -0.469167
    166 C51        -3.7110   -3.0100   -0.8860 c3        1 MOL      1.039920
    167 C52        -3.8750   -4.4820   -0.9860 c3        1 MOL     -0.452237
    168 C53        -3.5210   -5.0880   -2.2960 c         1 MOL      0.449446
    169 O23        -4.4020   -5.3930   -3.1230 o         1 MOL     -0.617504
    170 O24        -2.3620   -5.0410   -2.6970 o         1 MOL     -0.617504
    171 H80        -4.0970   -0.5090   -0.5800 hn        1 MOL      0.003902
    172 H81        -4.3750   -2.5430   -2.7570 h1        1 MOL      0.157777
    173 H82        -3.9260   -2.6900    0.1350 hc        1 MOL     -0.290869
    174 H83        -2.6910   -2.8030   -1.1790 hc        1 MOL     -0.290869
    175 H84        -4.8950   -4.6800   -0.6640 hc        1 MOL      0.085521
    176 H85        -3.2230   -4.9400   -0.2370 hc        1 MOL      0.085521
    177 N15        -6.6890   -3.4750   -2.3660 n         1 MOL     -0.271304
    178 C54        -8.1390   -3.8730   -2.4950 c3        1 MOL      0.093285
    179 H86        -8.5620   -3.4140   -3.3880 h1        1 MOL      0.020426
    180 H87        -8.2130   -4.9580   -2.5750 h1        1 MOL      0.020426
    181 H88        -8.6890   -3.5340   -1.6170 h1        1 MOL      0.020426
    182 H89        -6.0980   -3.7560   -3.1370 hn        1 MOL      0.255550
    183 Ca1         0.2980   -5.3520   -2.4740 Ca        1 MOL      1.630657
    184 O25         1.5090   -7.0950   -4.2170 oh        1 MOL     -0.877640
    185 H90         2.4160   -7.3940   -4.1030 ho        1 MOL      0.434461
    186 H91         1.3670   -7.1110   -5.1640 ho        1 MOL      0.434461
    187 O26        -0.0390   -5.0630   -5.2840 oh        1 MOL     -0.877640
    188 H92         0.4720   -4.6920   -6.0060 ho        1 MOL      0.434461
    189 H93        -0.9280   -5.1330   -5.6400 ho        1 MOL      0.434461
    190 O27         2.3140   -3.7820   -3.7430 oh        1 MOL     -0.877640
    191 H94         1.8910   -3.0070   -4.1180 ho        1 MOL      0.434461
    192 H95         2.9760   -4.0330   -4.3870 ho        1 MOL      0.434461
@<TRIPOS>BOND
     1    1    2 1   
     2    1    4 1   
     3    1    5 1   
     4    1    6 1   
     5    2    3 2   
     6    2    7 1   
     7    7    8 1   
     8    7   15 1   
     9    8    9 1   
    10    8   11 1   
    11    8   16 1   
    12    9   10 2   
    13    9   19 1   
    14   11   12 1   
    15   11   17 1   
    16   11   18 1   
    17   12   13 1   
    18   12   14 1   
    19   19   20 1   
    20   19   28 1   
    21   20   21 1   
    22   20   23 1   
    23   20   29 1   
    24   21   22 2   
    25   21   41 1   
    26   23   24 1   
    27   23   30 1   
    28   23   31 1   
    29   24   25 1   
    30   24   32 1   
    31   24   33 1   
    32   25   26 1   
    33   25   34 1   
    34   25   35 1   
    35   26   27 1   
    36   26   36 1   
    37   26   37 1   
    38   27   38 1   
    39   27   39 1   
    40   27   40 1   
    41   41   42 1   
    42   41   49 1   
    43   42   43 1   
    44   42   45 1   
    45   42   50 1   
    46   43   44 2   
    47   43   53 1   
    48   45   46 1   
    49   45   51 1   
    50   45   52 1   
    51   46   47 1   
    52   46   48 1   
    53   53   54 1   
    54   53   57 1   
    55   54   55 1   
    56   54   58 1   
    57   54   59 1   
    58   55   56 2   
    59   55   60 1   
    60   60   61 1   
    61   60   68 1   
    62   61   62 1   
    63   61   64 1   
    64   61   69 1   
    65   62   63 2   
    66   62   72 1   
    67   64   65 1   
    68   64   70 1   
    69   64   71 1   
    70   65   66 1   
    71   65   67 1   
    72   72   73 1   
    73   72   76 1   
    74   73   74 1   
    75   73   77 1   
    76   73   78 1   
    77   74   75 2   
    78   74   79 1   
    79   79   80 1   
    80   79   86 1   
    81   80   81 1   
    82   80   83 1   
    83   80   87 1   
    84   81   82 2   
    85   81   93 1   
    86   83   84 1   
    87   83   85 1   
    88   83   88 1   
    89   84   90 1   
    90   84   91 1   
    91   84   92 1   
    92   85   89 1   
    93   93   94 1   
    94   93  101 1   
    95   94   95 1   
    96   94   97 1   
    97   94  102 1   
    98   95   96 2   
    99   95  112 1   
   100   97   98 1   
   101   97   99 1   
   102   97  103 1   
   103   98  100 1   
   104   98  104 1   
   105   98  105 1   
   106   99  106 1   
   107   99  107 1   
   108   99  108 1   
   109  100  109 1   
   110  100  110 1   
   111  100  111 1   
   112  112  113 1   
   113  112  119 1   
   114  113  114 1   
   115  113  116 1   
   116  113  120 1   
   117  114  115 2   
   118  114  126 1   
   119  116  117 1   
   120  116  118 1   
   121  116  121 1   
   122  117  123 1   
   123  117  124 1   
   124  117  125 1   
   125  118  122 1   
   126  126  127 1   
   127  126  133 1   
   128  127  128 1   
   129  127  130 1   
   130  127  134 1   
   131  128  129 2   
   132  128  140 1   
   133  130  131 1   
   134  130  132 1   
   135  130  135 1   
   136  131  137 1   
   137  131  138 1   
   138  131  139 1   
   139  132  136 1   
   140  140  141 1   
   141  140  149 1   
   142  141  142 1   
   143  141  144 1   
   144  141  150 1   
   145  142  143 2   
   146  142  162 1   
   147  144  145 1   
   148  144  151 1   
   149  144  152 1   
   150  145  146 1   
   151  145  153 1   
   152  145  154 1   
   153  146  147 1   
   154  146  155 1   
   155  146  156 1   
   156  147  148 1   
   157  147  157 1   
   158  147  158 1   
   159  148  159 1   
   160  148  160 1   
   161  148  161 1   
   162  162  163 1   
   163  162  171 1   
   164  163  164 1   
   165  163  166 1   
   166  163  172 1   
   167  164  165 2   
   168  164  177 1   
   169  166  167 1   
   170  166  173 1   
   171  166  174 1   
   172  167  168 1   
   173  167  175 1   
   174  167  176 1   
   175  168  169 1   
   176  168  170 1   
   177  177  178 1   
   178  177  182 1   
   179  178  179 1   
   180  178  180 1   
   181  178  181 1   
   182  184  185 1   
   183  184  186 1   
   184  187  188 1   
   185  187  189 1   
   186  190  191 1   
   187  190  192 1   
@<TRIPOS>SUBSTRUCTURE
     1 MOL         1 TEMP              0 ****  ****    0 ROOT
