@<TRIPOS>MOLECULE
MOL
  192   187     1     0     0
SMALL
resp


@<TRIPOS>ATOM
      1 C1          9.1490    0.4360    2.1010 c3        1 MOL     -0.609909
      2 C2          8.2090    0.5070    0.8940 c         1 MOL      0.771375
      3 O1          7.2680    1.2870    0.8850 o         1 MOL     -0.647039
      4 H1          9.9660    1.1450    1.9670 hc        1 MOL      0.151676
      5 H2          8.5970    0.6860    3.0070 hc        1 MOL      0.151676
      6 H3          9.5540   -0.5720    2.1880 hc        1 MOL      0.151676
      7 N1          8.3520   -0.4140   -0.0700 n         1 MOL     -0.463293
      8 C3          7.5430   -0.5760   -1.2640 c3        1 MOL     -0.004826
      9 C4          6.7460   -1.8900   -1.1670 c         1 MOL      0.500296
     10 O2          6.5450   -2.5750   -2.1820 o         1 MOL     -0.430775
     11 C5          8.3650   -0.2680   -2.5840 c3        1 MOL     -0.428999
     12 C6          9.6190   -1.2320   -2.7150 c         1 MOL      0.796259
     13 O3         10.6560   -0.8520   -3.3080 o         1 MOL     -0.651430
     14 O4          9.5840   -2.3670   -2.2150 o         1 MOL     -0.651430
     15 H4          9.0820   -1.1020   -0.1020 hn        1 MOL      0.234457
     16 H5          6.8310    0.2540   -1.2010 h1        1 MOL      0.153584
     17 H6          8.7500    0.7420   -2.4080 hc        1 MOL      0.135033
     18 H7          7.7630   -0.3530   -3.4870 hc        1 MOL      0.135033
     19 N2          6.5090   -2.3370    0.0850 n         1 MOL     -0.316057
     20 C7          5.8230   -3.5780    0.3200 c3        1 MOL      0.107729
     21 C8          4.4250   -3.7770   -0.2800 c         1 MOL      0.392213
     22 O5          4.0490   -4.8690   -0.7640 o         1 MOL     -0.519217
     23 C9          5.9540   -4.0260    1.8120 c3        1 MOL     -0.045589
     24 C10         7.3630   -4.3930    2.2910 c3        1 MOL      0.008008
     25 C11         7.4620   -4.3730    3.7800 c3        1 MOL      0.071466
     26 C12         8.9440   -4.6490    4.1210 c3        1 MOL      0.172474
     27 N3          9.2150   -4.7940    5.5720 n4        1 MOL     -0.151665
     28 H8          6.6590   -1.6990    0.8490 hn        1 MOL      0.232002
     29 H9          6.3960   -4.3150   -0.2400 h1        1 MOL      0.055279
     30 H10         5.2570   -4.8490    1.9810 hc        1 MOL      0.030654
     31 H11         5.6280   -3.1410    2.3540 hc        1 MOL      0.030654
     32 H12         7.9850   -3.6140    1.8550 hc        1 MOL      0.014781
     33 H13         7.6010   -5.4030    1.9430 hc        1 MOL      0.014781
     34 H14         6.8820   -5.1200    4.3230 hc        1 MOL     -0.027582
     35 H15         7.1810   -3.3720    4.1030 hc        1 MOL     -0.027582
     36 H16         9.5500   -3.7680    3.9050 hx        1 MOL      0.012113
     37 H17         9.3040   -5.5340    3.5930 hx        1 MOL      0.012113
     38 H18        10.2140   -4.7380    5.7530 hn        1 MOL      0.219371
     39 H19         8.7660   -4.0750    6.1100 hn        1 MOL      0.219371
     40 H20         8.7710   -5.6110    5.9760 hn        1 MOL      0.219371
     41 N4          3.4780   -2.8000   -0.2130 n         1 MOL     -0.266058
     42 C13         3.4990   -1.5540    0.6260 c3        1 MOL     -0.082925
     43 C14         3.6790   -0.3070   -0.3100 c         1 MOL     -0.053347
     44 O6          3.5520   -0.3920   -1.5350 o         1 MOL     -0.361311
     45 C15         2.2800   -1.5780    1.6230 c3        1 MOL     -0.033162
     46 C16         0.9680   -1.7860    0.8390 c         1 MOL      0.667122
     47 O7          0.8560   -1.4910   -0.3950 o         1 MOL     -0.644769
     48 O8          0.0670   -2.4120    1.3970 o         1 MOL     -0.644769
     49 H21         2.6100   -3.0990   -0.6530 hn        1 MOL      0.315142
     50 H22         4.4430   -1.5070    1.1720 h1        1 MOL      0.072323
     51 H23         2.1570   -0.6540    2.1970 hc        1 MOL      0.020800
     52 H24         2.4300   -2.3950    2.3240 hc        1 MOL      0.020800
     53 N5          3.9800    0.8710    0.2620 n         1 MOL     -0.052651
     54 C17         4.1810    2.1250   -0.4730 c3        1 MOL     -0.152758
     55 C18         2.9380    2.5210   -1.2380 c         1 MOL      0.605827
     56 O9          1.8920    1.8500   -1.1240 o         1 MOL     -0.426725
     57 H25         4.1330    0.9020    1.2590 hn        1 MOL      0.239119
     58 H26         4.9850    1.9690   -1.1880 h1        1 MOL      0.096087
     59 H27         4.3590    2.9140    0.2690 h1        1 MOL      0.096087
     60 N6          2.9820    3.6840   -1.9030 n         1 MOL     -0.663650
     61 C19         1.8800    4.5110   -2.4090 c3        1 MOL      0.421633
     62 C20         2.2650    6.0010   -2.4100 c         1 MOL      0.331291
     63 O10         3.4200    6.3950   -2.1220 o         1 MOL     -0.519997
     64 C21         1.4220    3.9870   -3.7980 c3        1 MOL     -0.270560
     65 C22         1.1590    2.4670   -3.8450 c         1 MOL      0.758300
     66 O11         2.0170    1.7060   -4.4020 o         1 MOL     -0.685556
     67 O12         0.0640    2.1020   -3.4060 o         1 MOL     -0.685556
     68 H28         3.8930    4.0790   -2.1080 hn        1 MOL      0.338423
     69 H29         1.0510    4.4670   -1.7110 h1        1 MOL      0.040896
     70 H30         2.1580    4.1770   -4.5790 hc        1 MOL      0.040362
     71 H31         0.4790    4.4950   -4.0350 hc        1 MOL      0.040362
     72 N7          1.2960    6.9140   -2.5630 n         1 MOL     -0.319987
     73 C23        -0.1580    6.7910   -2.7070 c3        1 MOL     -0.283504
     74 C24        -0.7810    6.5440   -1.3580 c         1 MOL      0.740190
     75 O13        -0.3610    7.1210   -0.4050 o         1 MOL     -0.541631
     76 H32         1.7240    7.8290   -2.5560 hn        1 MOL      0.299808
     77 H33        -0.4240    6.0920   -3.4980 h1        1 MOL      0.124399
     78 H34        -0.5480    7.7470   -3.0520 h1        1 MOL      0.124399
     79 N8         -1.7650    5.6840   -1.3520 n         1 MOL     -0.615611
     80 C25        -2.2540    5.1190   -0.0170 c3        1 MOL      0.059478
     81 C26        -1.2820    3.9770    0.4490 c         1 MOL      0.578779
     82 O14        -0.8070    3.1890   -0.3970 o         1 MOL     -0.708898
     83 C27        -3.7140    4.6610   -0.0960 c3        1 MOL      0.618566
     84 C28        -4.7260    5.7890   -0.1170 c3        1 MOL     -0.369830
     85 O15        -4.1000    3.7770    0.9720 oh        1 MOL     -0.711718
     86 H35        -1.9580    5.0840   -2.1480 hn        1 MOL      0.307415
     87 H36        -2.3380    5.8330    0.8020 h1        1 MOL      0.008194
     88 H37        -3.8170    4.1130   -1.0350 h1        1 MOL     -0.031429
     89 H38        -4.2160    4.2850    1.7860 ho        1 MOL      0.372537
     90 H39        -4.1690    6.4940   -0.7330 hc        1 MOL      0.088940
     91 H40        -5.5670    5.4340   -0.7200 hc        1 MOL      0.088940
     92 H41        -4.9960    6.1340    0.8830 hc        1 MOL      0.088940
     93 N9         -0.9800    3.9510    1.7260 n         1 MOL     -0.450528
     94 C29        -0.2440    2.8700    2.4690 c3        1 MOL      0.294563
     95 C30        -0.7150    1.4740    2.1110 c         1 MOL      0.101842
     96 O16        -0.1840    0.7840    1.2850 o         1 MOL     -0.510344
     97 C31         1.3380    2.9670    2.2860 c3        1 MOL      0.461702
     98 C32         1.7300    4.4140    2.4080 c3        1 MOL     -0.336787
     99 C33         2.0520    2.1670    3.4350 c3        1 MOL     -0.488055
    100 C34         1.4000    5.1920    3.7020 c3        1 MOL     -0.319441
    101 H42        -1.4150    4.7190    2.2230 hn        1 MOL      0.249257
    102 H43        -0.5320    3.0720    3.5020 h1        1 MOL      0.026121
    103 H44         1.7200    2.6500    1.3130 hc        1 MOL     -0.145014
    104 H45         1.3350    5.0220    1.5970 hc        1 MOL      0.133193
    105 H46         2.8230    4.4590    2.3280 hc        1 MOL      0.133193
    106 H47         3.1330    2.1750    3.3030 hc        1 MOL      0.123221
    107 H48         1.7040    2.4290    4.4260 hc        1 MOL      0.123221
    108 H49         1.8160    1.1030    3.4120 hc        1 MOL      0.123221
    109 H50         1.9910    4.8930    4.5690 hc        1 MOL      0.089680
    110 H51         1.6620    6.2250    3.4620 hc        1 MOL      0.089680
    111 H52         0.3730    4.9640    3.9650 hc        1 MOL      0.089680
    112 N10        -1.8220    1.0830    2.7700 n         1 MOL     -0.154169
    113 C35        -2.3030   -0.2920    2.8300 c3        1 MOL     -0.080641
    114 C36        -3.8320   -0.4270    2.7210 c         1 MOL      0.414529
    115 O17        -4.3890   -1.5540    2.8670 o         1 MOL     -0.601986
    116 C37        -1.7900   -1.1760    4.1050 c3        1 MOL      0.417904
    117 C38        -1.8000   -0.3590    5.4470 c3        1 MOL     -0.291544
    118 O18        -0.4200   -1.2940    3.7490 oh        1 MOL     -0.633394
    119 H53        -2.1560    1.7480    3.4470 hn        1 MOL      0.195924
    120 H54        -1.9810   -0.7860    1.9100 h1        1 MOL      0.152724
    121 H55        -2.2830   -2.1330    4.2820 h1        1 MOL      0.033933
    122 H56        -0.3120   -1.7380    2.9040 ho        1 MOL      0.341811
    123 H57        -2.8070   -0.1150    5.7740 hc        1 MOL      0.068460
    124 H58        -1.4720   -1.1220    6.1580 hc        1 MOL      0.068460
    125 H59        -1.0910    0.4500    5.5930 hc        1 MOL      0.068460
    126 N11        -4.5710    0.6430    2.4590 n         1 MOL     -0.113774
    127 C39        -6.1040    0.6330    2.4770 c3        1 MOL     -0.192035
    128 C40        -6.7320   -0.1700    1.2940 c         1 MOL      0.658482
    129 O19        -7.2320    0.4170    0.3170 o         1 MOL     -0.555226
    130 C41        -6.5940    2.0970    2.6530 c3        1 MOL      0.508169
    131 C42        -8.0010    2.2330    3.1840 c3        1 MOL     -0.231579
    132 O20        -5.9350    2.6690    3.7440 oh        1 MOL     -0.664678
    133 H60        -4.0980    1.5360    2.3950 hn        1 MOL      0.126844
    134 H61        -6.4760    0.0970    3.3540 h1        1 MOL      0.115502
    135 H62        -6.3510    2.7270    1.7920 h1        1 MOL     -0.062127
    136 H63        -6.2380    3.5770    3.7510 ho        1 MOL      0.398871
    137 H64        -8.6190    2.1310    2.2900 hc        1 MOL      0.049923
    138 H65        -8.3160    1.5360    3.9640 hc        1 MOL      0.049923
    139 H66        -8.1480    3.2540    3.5370 hc        1 MOL      0.049923
    140 N12        -6.7110   -1.4970    1.4500 n         1 MOL     -0.774931
    141 C43        -6.5830   -2.4340    0.3120 c3        1 MOL      0.315049
    142 C44        -5.3010   -2.1280   -0.4570 c         1 MOL      0.612509
    143 O21        -4.7000   -1.0880   -0.3730 o         1 MOL     -0.508208
    144 C45        -7.7690   -2.5620   -0.6140 c3        1 MOL     -0.399206
    145 C46        -9.1330   -2.8140    0.0940 c3        1 MOL      0.106717
    146 C47       -10.2900   -3.1550   -0.8540 c3        1 MOL     -0.020732
    147 C48       -11.6290   -3.2990   -0.0520 c3        1 MOL      0.038583
    148 N13       -12.6290   -3.8710   -0.9490 n4        1 MOL     -0.105479
    149 H67        -6.0120   -1.7840    2.1140 hn        1 MOL      0.395786
    150 H68        -6.4880   -3.4150    0.7890 h1        1 MOL      0.029644
    151 H69        -7.5490   -3.3810   -1.2940 hc        1 MOL      0.120465
    152 H70        -7.8690   -1.6630   -1.2250 hc        1 MOL      0.120465
    153 H71        -9.4430   -1.9600    0.6980 hc        1 MOL      0.028706
    154 H72        -9.0240   -3.5980    0.8360 hc        1 MOL      0.028706
    155 H73        -9.9880   -4.0990   -1.3020 hc        1 MOL      0.028426
    156 H74       -10.4100   -2.3640   -1.5920 hc        1 MOL      0.028426
    157 H75       -12.0330   -2.3980    0.4160 hx        1 MOL      0.053583
    158 H76       -11.3540   -4.0160    0.7180 hx        1 MOL      0.053583
    159 H77       -12.5170   -4.8150   -1.2900 hn        1 MOL      0.201200
    160 H78       -13.5570   -3.7680   -0.5560 hn        1 MOL      0.201200
    161 H79       -12.7140   -3.2490   -1.7380 hn        1 MOL      0.201200
    162 N14        -4.7980   -3.1920   -1.1510 n         1 MOL     -0.710272
    163 C49        -3.6150   -3.1510   -2.0260 c3        1 MOL      0.179528
    164 C50        -2.3500   -2.6130   -1.3190 c         1 MOL      0.287815
    165 O22        -1.6780   -1.6810   -1.8340 o         1 MOL     -0.569357
    166 C51        -3.3460   -4.5780   -2.6350 c3        1 MOL      0.000933
    167 C52        -4.4660   -4.9460   -3.6420 c3        1 MOL     -0.035730
    168 C53        -4.1380   -6.2630   -4.3250 c         1 MOL      0.646898
    169 O23        -4.3280   -6.2540   -5.5690 o         1 MOL     -0.645870
    170 O24        -3.7140   -7.2490   -3.6110 o         1 MOL     -0.645870
    171 H80        -5.3440   -4.0370   -1.0980 hn        1 MOL      0.364397
    172 H81        -3.7430   -2.3870   -2.7820 h1        1 MOL      0.092095
    173 H82        -3.1250   -5.3620   -1.9060 hc        1 MOL      0.041909
    174 H83        -2.4380   -4.5970   -3.2420 hc        1 MOL      0.041909
    175 H84        -4.6350   -4.1260   -4.3280 hc        1 MOL     -0.039283
    176 H85        -5.3640   -5.1590   -3.0690 hc        1 MOL     -0.039283
    177 N15        -1.9170   -3.1880   -0.1620 n         1 MOL     -0.190432
    178 C54        -2.3230   -4.4110    0.5540 c3        1 MOL      0.063066
    179 H86        -3.2630   -4.7780    0.1420 h1        1 MOL      0.005520
    180 H87        -1.5530   -5.1730    0.4380 h1        1 MOL      0.005520
    181 H88        -2.4540   -4.1860    1.6130 h1        1 MOL      0.005520
    182 H89        -1.1350   -2.7190    0.2770 hn        1 MOL      0.291623
    183 Ca1        -0.4400    0.5090   -1.3690 Ca        1 MOL      1.809556
    184 O25        -2.9320    0.9970   -0.2760 oh        1 MOL     -0.885116
    185 H90        -3.1830    1.9170   -0.1910 ho        1 MOL      0.419261
    186 H91        -3.7450    0.5360   -0.4480 ho        1 MOL      0.419261
    187 O26         1.3510   -0.5610   -3.2460 oh        1 MOL     -0.885116
    188 H92         1.5480    0.1280   -3.8730 ho        1 MOL      0.419261
    189 H93         2.0950   -0.5510   -2.6460 ho        1 MOL      0.419261
    190 O27        -2.5410    0.7200   -3.3450 oh        1 MOL     -0.885116
    191 H94        -2.8120    0.3240   -4.1760 ho        1 MOL      0.419261
    192 H95        -3.3250    1.1730   -3.0330 ho        1 MOL      0.419261
@<TRIPOS>BOND
     1    1    2 1   
     2    1    4 1   
     3    1    5 1   
     4    1    6 1   
     5    2    3 2   
     6    2    7 1   
     7    7    8 1   
     8    7   15 1   
     9    8    9 1   
    10    8   11 1   
    11    8   16 1   
    12    9   10 2   
    13    9   19 1   
    14   11   12 1   
    15   11   17 1   
    16   11   18 1   
    17   12   13 1   
    18   12   14 1   
    19   19   20 1   
    20   19   28 1   
    21   20   21 1   
    22   20   23 1   
    23   20   29 1   
    24   21   22 2   
    25   21   41 1   
    26   23   24 1   
    27   23   30 1   
    28   23   31 1   
    29   24   25 1   
    30   24   32 1   
    31   24   33 1   
    32   25   26 1   
    33   25   34 1   
    34   25   35 1   
    35   26   27 1   
    36   26   36 1   
    37   26   37 1   
    38   27   38 1   
    39   27   39 1   
    40   27   40 1   
    41   41   42 1   
    42   41   49 1   
    43   42   43 1   
    44   42   45 1   
    45   42   50 1   
    46   43   44 2   
    47   43   53 1   
    48   45   46 1   
    49   45   51 1   
    50   45   52 1   
    51   46   47 1   
    52   46   48 1   
    53   53   54 1   
    54   53   57 1   
    55   54   55 1   
    56   54   58 1   
    57   54   59 1   
    58   55   56 2   
    59   55   60 1   
    60   60   61 1   
    61   60   68 1   
    62   61   62 1   
    63   61   64 1   
    64   61   69 1   
    65   62   63 2   
    66   62   72 1   
    67   64   65 1   
    68   64   70 1   
    69   64   71 1   
    70   65   66 1   
    71   65   67 1   
    72   72   73 1   
    73   72   76 1   
    74   73   74 1   
    75   73   77 1   
    76   73   78 1   
    77   74   75 2   
    78   74   79 1   
    79   79   80 1   
    80   79   86 1   
    81   80   81 1   
    82   80   83 1   
    83   80   87 1   
    84   81   82 2   
    85   81   93 1   
    86   83   84 1   
    87   83   85 1   
    88   83   88 1   
    89   84   90 1   
    90   84   91 1   
    91   84   92 1   
    92   85   89 1   
    93   93   94 1   
    94   93  101 1   
    95   94   95 1   
    96   94   97 1   
    97   94  102 1   
    98   95   96 2   
    99   95  112 1   
   100   97   98 1   
   101   97   99 1   
   102   97  103 1   
   103   98  100 1   
   104   98  104 1   
   105   98  105 1   
   106   99  106 1   
   107   99  107 1   
   108   99  108 1   
   109  100  109 1   
   110  100  110 1   
   111  100  111 1   
   112  112  113 1   
   113  112  119 1   
   114  113  114 1   
   115  113  116 1   
   116  113  120 1   
   117  114  115 2   
   118  114  126 1   
   119  116  117 1   
   120  116  118 1   
   121  116  121 1   
   122  117  123 1   
   123  117  124 1   
   124  117  125 1   
   125  118  122 1   
   126  126  127 1   
   127  126  133 1   
   128  127  128 1   
   129  127  130 1   
   130  127  134 1   
   131  128  129 2   
   132  128  140 1   
   133  130  131 1   
   134  130  132 1   
   135  130  135 1   
   136  131  137 1   
   137  131  138 1   
   138  131  139 1   
   139  132  136 1   
   140  140  141 1   
   141  140  149 1   
   142  141  142 1   
   143  141  144 1   
   144  141  150 1   
   145  142  143 2   
   146  142  162 1   
   147  144  145 1   
   148  144  151 1   
   149  144  152 1   
   150  145  146 1   
   151  145  153 1   
   152  145  154 1   
   153  146  147 1   
   154  146  155 1   
   155  146  156 1   
   156  147  148 1   
   157  147  157 1   
   158  147  158 1   
   159  148  159 1   
   160  148  160 1   
   161  148  161 1   
   162  162  163 1   
   163  162  171 1   
   164  163  164 1   
   165  163  166 1   
   166  163  172 1   
   167  164  165 2   
   168  164  177 1   
   169  166  167 1   
   170  166  173 1   
   171  166  174 1   
   172  167  168 1   
   173  167  175 1   
   174  167  176 1   
   175  168  169 1   
   176  168  170 1   
   177  177  178 1   
   178  177  182 1   
   179  178  179 1   
   180  178  180 1   
   181  178  181 1   
   182  184  185 1   
   183  184  186 1   
   184  187  188 1   
   185  187  189 1   
   186  190  191 1   
   187  190  192 1   
@<TRIPOS>SUBSTRUCTURE
     1 MOL         1 TEMP              0 ****  ****    0 ROOT
