@<TRIPOS>MOLECULE
MOL
  204   195     1     0     0
SMALL
resp


@<TRIPOS>ATOM
      1 C1          9.1070    7.3890   -4.1300 c3        1 MOL     -0.291392
      2 C2          8.1560    6.5600   -3.3040 c         1 MOL      0.677655
      3 O1          6.9900    6.1170   -3.7130 o         1 MOL     -0.573816
      4 H1         10.1090    7.3210   -3.7080 hc        1 MOL      0.075700
      5 H2          9.1190    7.0160   -5.1550 hc        1 MOL      0.075700
      6 H3          8.7810    8.4300   -4.1250 hc        1 MOL      0.075700
      7 N1          8.6390    6.1420   -2.1610 n         1 MOL     -0.614275
      8 C3          7.9090    5.3780   -1.1390 c3        1 MOL      0.237275
      9 C4          7.1890    4.0180   -1.6000 c         1 MOL      0.403329
     10 O2          5.9290    3.8540   -1.7610 o         1 MOL     -0.475223
     11 C5          6.9960    6.3260   -0.3520 c3        1 MOL     -0.396881
     12 C6          7.7120    7.4790    0.2880 c         1 MOL      0.735438
     13 O3          7.3740    8.6350   -0.1200 o         1 MOL     -0.639907
     14 O4          8.7060    7.4160    1.0070 o         1 MOL     -0.639907
     15 H4          9.5000    6.5440   -1.8150 hn        1 MOL      0.358437
     16 H5          8.6280    5.1500   -0.3460 h1        1 MOL     -0.006409
     17 H6          6.5940    5.6850    0.4320 hc        1 MOL      0.118813
     18 H7          6.2270    6.6290   -1.0760 hc        1 MOL      0.118813
     19 N2          8.0460    3.0150   -1.8010 n         1 MOL     -0.214067
     20 C7          7.7970    1.6040   -2.1470 c3        1 MOL     -0.207565
     21 C8          7.3160    0.7960   -0.9410 c         1 MOL      0.560650
     22 O5          8.1020    0.4990   -0.0220 o         1 MOL     -0.556379
     23 C9          9.0920    1.0270   -2.7740 c3        1 MOL      0.070895
     24 C10         8.8290   -0.1500   -3.8190 c3        1 MOL     -0.019958
     25 C11        10.0890   -0.4800   -4.6190 c3        1 MOL      0.146365
     26 C12         9.8640   -1.4900   -5.7130 c3        1 MOL     -0.097969
     27 N3          9.5330   -2.7900   -5.1500 n4        1 MOL     -0.201003
     28 H8          9.0010    3.3320   -1.7120 hn        1 MOL      0.187475
     29 H9          7.0150    1.7020   -2.8990 h1        1 MOL      0.143661
     30 H10         9.8950    0.7040   -2.1110 hc        1 MOL      0.013229
     31 H11         9.5240    1.8630   -3.3370 hc        1 MOL      0.013229
     32 H12         8.1310    0.2650   -4.5430 hc        1 MOL      0.006826
     33 H13         8.5330   -1.0520   -3.2860 hc        1 MOL      0.006826
     34 H14        10.8610   -0.7880   -3.9040 hc        1 MOL     -0.005119
     35 H15        10.4530    0.4330   -5.0840 hc        1 MOL     -0.005119
     36 H16        10.7490   -1.6170   -6.3340 hx        1 MOL      0.097751
     37 H17         9.0530   -1.1590   -6.3600 hx        1 MOL      0.097751
     38 H18        10.0710   -3.0300   -4.3190 hn        1 MOL      0.223496
     39 H19         8.5440   -2.8220   -4.9240 hn        1 MOL      0.223496
     40 H20         9.7260   -3.5380   -5.8010 hn        1 MOL      0.223496
     41 N4          6.0320    0.5350   -0.8830 n         1 MOL     -0.483893
     42 C13         5.4080   -0.0120    0.2370 c3        1 MOL      0.248933
     43 C14         4.2050   -0.8210   -0.2880 c         1 MOL      0.345327
     44 O6          3.5690   -0.4740   -1.2960 o         1 MOL     -0.501217
     45 C15         5.0400    1.1830    1.1490 c3        1 MOL     -0.037456
     46 C16         4.0620    0.7800    2.2510 c         1 MOL      0.520392
     47 O7          4.4590    0.2990    3.3590 o         1 MOL     -0.641941
     48 O8          2.8240    0.9720    2.1020 o         1 MOL     -0.641941
     49 H21         5.4020    0.7520   -1.6470 hn        1 MOL      0.251066
     50 H22         6.0970   -0.7010    0.7190 h1        1 MOL      0.041328
     51 H23         4.7970    2.1170    0.6400 hc        1 MOL      0.034412
     52 H24         5.9450    1.4060    1.7090 hc        1 MOL      0.034412
     53 N5          3.9190   -1.9290    0.3160 n         1 MOL     -0.331543
     54 C17         4.6550   -2.6730    1.3490 c3        1 MOL      0.129885
     55 C18         3.9750   -3.8160    2.0550 c         1 MOL      0.414258
     56 O9          4.0850   -4.9580    1.5840 o         1 MOL     -0.577595
     57 H25         3.1110   -2.4010   -0.0630 hn        1 MOL      0.267801
     58 H26         5.1230   -1.9870    2.0460 h1        1 MOL     -0.005230
     59 H27         5.5000   -3.1180    0.8360 h1        1 MOL     -0.005230
     60 N6          3.2340   -3.4940    3.0370 n         1 MOL      0.150230
     61 C19         2.5020   -4.5540    3.7050 c3        1 MOL     -0.397716
     62 C20         1.1210   -4.8670    3.0560 c         1 MOL      0.653718
     63 O10         0.3130   -3.9320    2.8150 o         1 MOL     -0.647222
     64 C21         2.2830   -4.3770    5.1750 c3        1 MOL      0.106990
     65 C22         1.9900   -2.9400    5.6720 c         1 MOL      0.779887
     66 O11         1.0170   -2.7290    6.4150 o         1 MOL     -0.771294
     67 O12         2.8080   -2.0790    5.3650 o         1 MOL     -0.771294
     68 H28         3.2430   -2.5620    3.4370 hn        1 MOL      0.044115
     69 H29         3.0260   -5.5030    3.6000 h1        1 MOL      0.090657
     70 H30         3.1600   -4.6510    5.7620 hc        1 MOL     -0.001995
     71 H31         1.5170   -5.0610    5.5350 hc        1 MOL     -0.001995
     72 N7          0.8910   -6.0920    2.7930 n         1 MOL     -0.170345
     73 C23        -0.2140   -6.5780    1.9970 c3        1 MOL     -0.384435
     74 C24        -0.0910   -6.4160    0.4980 c         1 MOL      0.659629
     75 O13        -0.8750   -6.9180   -0.2440 o         1 MOL     -0.537442
     76 H32         1.4840   -6.7780    3.2600 hn        1 MOL      0.260484
     77 H33        -1.1490   -6.1210    2.3020 h1        1 MOL      0.158514
     78 H34        -0.1950   -7.6460    2.2340 h1        1 MOL      0.158514
     79 N8          0.8810   -5.5740    0.0690 n         1 MOL     -0.228571
     80 C25         0.9400   -5.1940   -1.4350 c3        1 MOL      0.012596
     81 C26         0.8990   -3.6720   -1.4860 c         1 MOL      0.335803
     82 O14         1.3100   -2.9300   -0.5720 o         1 MOL     -0.429777
     83 C27         2.0790   -5.9010   -2.2260 c3        1 MOL      0.283273
     84 C28         3.4140   -5.5580   -1.4780 c3        1 MOL     -0.426027
     85 O15         1.8830   -7.3150   -2.3120 oh        1 MOL     -0.608629
     86 H35         1.4780   -5.1660    0.7770 hn        1 MOL      0.083632
     87 H36        -0.0300   -5.5010   -1.8170 h1        1 MOL      0.074038
     88 H37         2.1290   -5.4840   -3.2360 h1        1 MOL      0.006872
     89 H38         2.6300   -7.6550   -2.8230 ho        1 MOL      0.401112
     90 H39         4.1920   -5.6050   -2.2530 hc        1 MOL      0.116894
     91 H40         3.3560   -4.5810   -1.0000 hc        1 MOL      0.116894
     92 H41         3.6010   -6.3630   -0.7680 hc        1 MOL      0.116894
     93 N9          0.4460   -3.1690   -2.6490 n         1 MOL     -0.308698
     94 C29         0.2240   -1.7090   -2.8500 c3        1 MOL     -0.062613
     95 C30        -1.1240   -1.2540   -2.2950 c         1 MOL      0.584855
     96 O16        -1.3470   -0.1490   -1.8760 o         1 MOL     -0.543040
     97 C31         0.2770   -1.2080   -4.3770 c3        1 MOL      0.180298
     98 C32         1.6900   -1.5470   -4.9250 c3        1 MOL     -0.142769
     99 C33        -0.1480    0.2910   -4.6330 c3        1 MOL     -0.255636
    100 C34         1.8350   -1.2370   -6.4330 c3        1 MOL     -0.246032
    101 H42         0.3650   -3.7920   -3.4420 hn        1 MOL      0.243047
    102 H43         1.0170   -1.1950   -2.3130 h1        1 MOL      0.092566
    103 H44        -0.4730   -1.8520   -4.8420 hc        1 MOL     -0.009620
    104 H45         2.0090   -2.5770   -4.7400 hc        1 MOL      0.065557
    105 H46         2.3720   -0.9360   -4.3370 hc        1 MOL      0.065557
    106 H47        -1.1130    0.4170   -4.1420 hc        1 MOL      0.083554
    107 H48         0.5290    1.0330   -4.2230 hc        1 MOL      0.083554
    108 H49        -0.3110    0.3910   -5.7030 hc        1 MOL      0.083554
    109 H50         1.6350   -0.1840   -6.6190 hc        1 MOL      0.066643
    110 H51         2.8340   -1.4500   -6.8300 hc        1 MOL      0.066643
    111 H52         1.0800   -1.7620   -7.0070 hc        1 MOL      0.066643
    112 N10        -2.0570   -2.1440   -2.1610 n         1 MOL     -0.302902
    113 C35        -3.2850   -2.1050   -1.3670 c3        1 MOL     -0.046976
    114 C36        -4.4750   -2.4100   -2.1980 c         1 MOL      0.523939
    115 O17        -4.4120   -3.0240   -3.2740 o         1 MOL     -0.531545
    116 C37        -3.2840   -3.0780   -0.1660 c3        1 MOL      0.397213
    117 C38        -2.0920   -3.1000    0.6870 c3        1 MOL     -0.117752
    118 O18        -4.3970   -2.8410    0.6640 oh        1 MOL     -0.607654
    119 H53        -1.9410   -2.8580   -2.8720 hn        1 MOL      0.164703
    120 H54        -3.3760   -1.1360   -0.8760 h1        1 MOL      0.127763
    121 H55        -3.3030   -4.1130   -0.5130 h1        1 MOL     -0.045557
    122 H56        -4.0850   -3.0990    1.5370 ho        1 MOL      0.375660
    123 H57        -2.2330   -3.8030    1.4940 hc        1 MOL      0.011752
    124 H58        -1.1800   -3.3500    0.1370 hc        1 MOL      0.011752
    125 H59        -2.0770   -2.0500    0.9860 hc        1 MOL      0.011752
    126 N11        -5.6540   -1.8440   -1.9080 n         1 MOL     -0.465468
    127 C39        -6.8840   -2.0370   -2.7350 c3        1 MOL      0.050691
    128 C40        -7.7810   -0.7240   -2.7310 c         1 MOL      0.562558
    129 O19        -7.9710   -0.1520   -3.7550 o         1 MOL     -0.541152
    130 C41        -7.5930   -3.3680   -2.2930 c3        1 MOL      0.299568
    131 C42        -8.8810   -3.5350   -3.1020 c3        1 MOL     -0.370690
    132 O20        -7.9610   -3.2300   -0.9690 oh        1 MOL     -0.570975
    133 H60        -5.7340   -1.3790   -1.0100 hn        1 MOL      0.234872
    134 H61        -6.5460   -2.1730   -3.7710 h1        1 MOL      0.083215
    135 H62        -6.8790   -4.1750   -2.4410 h1        1 MOL      0.029482
    136 H63        -7.1760   -3.4620   -0.4550 ho        1 MOL      0.358653
    137 H64        -9.6040   -2.7440   -2.8990 hc        1 MOL      0.098795
    138 H65        -8.6640   -3.5270   -4.1580 hc        1 MOL      0.098795
    139 H66        -9.3730   -4.4760   -2.8170 hc        1 MOL      0.098795
    140 N12        -8.2710   -0.2910   -1.5520 n         1 MOL     -0.426870
    141 C43        -9.1550    0.8680   -1.4030 c3        1 MOL      0.005435
    142 C44        -8.7800    1.5880   -0.1280 c         1 MOL      0.621523
    143 O21        -8.6320    0.9290    0.9230 o         1 MOL     -0.540481
    144 C45       -10.5570    0.3770   -1.6320 c3        1 MOL     -0.385906
    145 C46       -11.5390    1.5720   -1.6580 c3        1 MOL      0.161280
    146 C47       -12.9920    1.1400   -1.8200 c3        1 MOL     -0.091622
    147 C48       -13.8330    2.4040   -2.1400 c3        1 MOL      0.117419
    148 N13       -15.2630    2.0560   -2.1860 n4        1 MOL     -0.173088
    149 H67        -8.1720   -0.7570   -0.6620 hn        1 MOL      0.280393
    150 H68        -8.8380    1.5470   -2.2040 h1        1 MOL      0.094919
    151 H69       -10.7680   -0.3170   -0.8170 hc        1 MOL      0.150482
    152 H70       -10.6600   -0.1490   -2.5800 hc        1 MOL      0.150482
    153 H71       -11.2180    2.1980   -2.4890 hc        1 MOL      0.007645
    154 H72       -11.5200    2.2550   -0.8050 hc        1 MOL      0.007645
    155 H73       -13.3870    0.6600   -0.9210 hc        1 MOL      0.033198
    156 H74       -13.0320    0.4280   -2.6420 hc        1 MOL      0.033198
    157 H75       -13.6440    2.7640   -3.1570 hx        1 MOL      0.044574
    158 H76       -13.5410    3.2030   -1.4480 hx        1 MOL      0.044574
    159 H77       -15.9080    2.8090   -1.9960 hn        1 MOL      0.214117
    160 H78       -15.5910    1.6660   -3.0650 hn        1 MOL      0.214117
    161 H79       -15.4880    1.3860   -1.4680 hn        1 MOL      0.214117
    162 N14        -8.6750    2.8970   -0.1690 n         1 MOL     -0.683475
    163 C49        -8.3240    3.6680    1.1140 c3        1 MOL      0.479277
    164 C50        -6.8630    3.5070    1.5180 c         1 MOL      0.414310
    165 O22        -6.6410    3.0670    2.6230 o         1 MOL     -0.542411
    166 C51        -8.7070    5.1710    0.9680 c3        1 MOL     -0.254006
    167 C52        -8.0810    6.1070    2.0130 c3        1 MOL     -0.072839
    168 C53        -8.5070    7.5300    1.7870 c         1 MOL      0.691171
    169 O23        -9.5120    8.0210    2.3410 o         1 MOL     -0.651154
    170 O24        -7.7710    8.2270    1.0480 o         1 MOL     -0.651154
    171 H80        -8.9010    3.3970   -1.0200 hn        1 MOL      0.312282
    172 H81        -8.8330    3.3340    2.0220 h1        1 MOL      0.005504
    173 H82        -9.7900    5.1120    1.0430 hc        1 MOL      0.056940
    174 H83        -8.4570    5.5100   -0.0300 hc        1 MOL      0.056940
    175 H84        -6.9950    6.0590    2.0120 hc        1 MOL      0.021983
    176 H85        -8.4530    5.7740    2.9810 hc        1 MOL      0.021983
    177 N15        -5.7280    3.8570    0.7830 n         1 MOL     -0.405033
    178 C54        -5.7110    4.1660   -0.6770 c3        1 MOL     -0.025859
    179 H86        -5.2340    3.3460   -1.2150 h1        1 MOL      0.049940
    180 H87        -6.7330    4.2890   -1.0350 h1        1 MOL      0.049940
    181 H88        -5.1520    5.0860   -0.8480 h1        1 MOL      0.049940
    182 H89        -4.7840    3.7650    1.1380 hn        1 MOL      0.310985
    183 Ca1         2.2150    0.4980    4.7490 Ca        1 MOL      1.740009
    184 O25         2.1930   -0.4350    7.4000 oh        1 MOL     -0.767953
    185 O26         0.0650    1.5020    3.4460 oh        1 MOL     -0.767953
    186 H90         1.9580   -0.4100    8.3260 ho        1 MOL      0.380508
    187 H91        -0.7370    1.0000    3.6070 ho        1 MOL      0.380508
    188 H92         2.0020   -1.3260    7.1320 ho        1 MOL      0.380508
    189 H93         0.1730    1.4690    2.4940 ho        1 MOL      0.380508
    190 O27         1.5210    2.4720    6.5020 oh        1 MOL     -0.767953
    191 H94         2.0160    2.5810    7.3140 ho        1 MOL      0.380508
    192 H95         0.6190    2.6470    6.7450 ho        1 MOL      0.380508
    193 O28         0.4690   -1.3660    3.1890 oh        1 MOL     -0.767953
    194 H96         0.5560   -2.2840    2.9080 ho        1 MOL      0.380508
    195 H97        -0.4460   -1.2820    3.4510 ho        1 MOL      0.380508
    196 O29        -0.1430   -0.4650    5.7110 oh        1 MOL     -0.767953
    197 H98        -0.0760   -1.3690    6.0200 ho        1 MOL      0.380508
    198 H99        -1.0800   -0.3130    5.6180 ho        1 MOL      0.380508
    199 O30         2.8430    3.1730    4.1960 oh        1 MOL     -0.767953
    200 H100        3.3890    3.6980    4.7730 ho        1 MOL      0.380508
    201 H101        2.8900    3.6310    3.3510 ho        1 MOL      0.380508
    202 O31         4.3370    1.3450    6.2900 oh        1 MOL     -0.767953
    203 H102        4.1910    1.6200    7.1970 ho        1 MOL      0.380508
    204 H103        5.2290    1.6360    6.0930 ho        1 MOL      0.380508
@<TRIPOS>BOND
     1    1    2 1   
     2    1    4 1   
     3    1    5 1   
     4    1    6 1   
     5    2    3 2   
     6    2    7 1   
     7    7    8 1   
     8    7   15 1   
     9    8    9 1   
    10    8   11 1   
    11    8   16 1   
    12    9   10 2   
    13    9   19 1   
    14   11   12 1   
    15   11   17 1   
    16   11   18 1   
    17   12   13 1   
    18   12   14 1   
    19   19   20 1   
    20   19   28 1   
    21   20   21 1   
    22   20   23 1   
    23   20   29 1   
    24   21   22 2   
    25   21   41 1   
    26   23   24 1   
    27   23   30 1   
    28   23   31 1   
    29   24   25 1   
    30   24   32 1   
    31   24   33 1   
    32   25   26 1   
    33   25   34 1   
    34   25   35 1   
    35   26   27 1   
    36   26   36 1   
    37   26   37 1   
    38   27   38 1   
    39   27   39 1   
    40   27   40 1   
    41   41   42 1   
    42   41   49 1   
    43   42   43 1   
    44   42   45 1   
    45   42   50 1   
    46   43   44 2   
    47   43   53 1   
    48   45   46 1   
    49   45   51 1   
    50   45   52 1   
    51   46   47 1   
    52   46   48 1   
    53   53   54 1   
    54   53   57 1   
    55   54   55 1   
    56   54   58 1   
    57   54   59 1   
    58   55   56 2   
    59   55   60 1   
    60   60   61 1   
    61   60   68 1   
    62   61   62 1   
    63   61   64 1   
    64   61   69 1   
    65   62   63 2   
    66   62   72 1   
    67   64   65 1   
    68   64   70 1   
    69   64   71 1   
    70   65   66 1   
    71   65   67 1   
    72   72   73 1   
    73   72   76 1   
    74   73   74 1   
    75   73   77 1   
    76   73   78 1   
    77   74   75 2   
    78   74   79 1   
    79   79   80 1   
    80   79   86 1   
    81   80   81 1   
    82   80   83 1   
    83   80   87 1   
    84   81   82 2   
    85   81   93 1   
    86   83   84 1   
    87   83   85 1   
    88   83   88 1   
    89   84   90 1   
    90   84   91 1   
    91   84   92 1   
    92   85   89 1   
    93   93   94 1   
    94   93  101 1   
    95   94   95 1   
    96   94   97 1   
    97   94  102 1   
    98   95   96 2   
    99   95  112 1   
   100   97   98 1   
   101   97   99 1   
   102   97  103 1   
   103   98  100 1   
   104   98  104 1   
   105   98  105 1   
   106   99  106 1   
   107   99  107 1   
   108   99  108 1   
   109  100  109 1   
   110  100  110 1   
   111  100  111 1   
   112  112  113 1   
   113  112  119 1   
   114  113  114 1   
   115  113  116 1   
   116  113  120 1   
   117  114  115 2   
   118  114  126 1   
   119  116  117 1   
   120  116  118 1   
   121  116  121 1   
   122  117  123 1   
   123  117  124 1   
   124  117  125 1   
   125  118  122 1   
   126  126  127 1   
   127  126  133 1   
   128  127  128 1   
   129  127  130 1   
   130  127  134 1   
   131  128  129 2   
   132  128  140 1   
   133  130  131 1   
   134  130  132 1   
   135  130  135 1   
   136  131  137 1   
   137  131  138 1   
   138  131  139 1   
   139  132  136 1   
   140  140  141 1   
   141  140  149 1   
   142  141  142 1   
   143  141  144 1   
   144  141  150 1   
   145  142  143 2   
   146  142  162 1   
   147  144  145 1   
   148  144  151 1   
   149  144  152 1   
   150  145  146 1   
   151  145  153 1   
   152  145  154 1   
   153  146  147 1   
   154  146  155 1   
   155  146  156 1   
   156  147  148 1   
   157  147  157 1   
   158  147  158 1   
   159  148  159 1   
   160  148  160 1   
   161  148  161 1   
   162  162  163 1   
   163  162  171 1   
   164  163  164 1   
   165  163  166 1   
   166  163  172 1   
   167  164  165 2   
   168  164  177 1   
   169  166  167 1   
   170  166  173 1   
   171  166  174 1   
   172  167  168 1   
   173  167  175 1   
   174  167  176 1   
   175  168  169 1   
   176  168  170 1   
   177  177  178 1   
   178  177  182 1   
   179  178  179 1   
   180  178  180 1   
   181  178  181 1   
   182  184  186 1   
   183  184  188 1   
   184  185  187 1   
   185  185  189 1   
   186  190  191 1   
   187  190  192 1   
   188  193  194 1   
   189  193  195 1   
   190  196  197 1   
   191  196  198 1   
   192  199  200 1   
   193  199  201 1   
   194  202  203 1   
   195  202  204 1   
@<TRIPOS>SUBSTRUCTURE
     1 MOL         1 TEMP              0 ****  ****    0 ROOT
