@<TRIPOS>MOLECULE
MOL
  189   185     1     0     0
SMALL
resp


@<TRIPOS>ATOM
      1 C1          4.3180    4.6930   -3.1020 c3        1 MOL     -0.538298
      2 C2          5.1330    3.8150   -2.0900 c         1 MOL      0.833139
      3 O1          4.5860    3.4370   -1.0410 o         1 MOL     -0.627478
      4 H1          3.2540    4.5950   -2.8910 hc        1 MOL      0.136474
      5 H2          4.6140    5.7370   -2.9970 hc        1 MOL      0.136474
      6 H3          4.5200    4.3570   -4.1190 hc        1 MOL      0.136474
      7 N1          6.3980    3.4710   -2.4240 n         1 MOL     -0.657939
      8 C3          7.1800    2.3420   -1.8510 c3        1 MOL      0.284909
      9 C4          6.2870    1.0660   -1.6710 c         1 MOL      0.457492
     10 O2          5.8960    0.6870   -0.5940 o         1 MOL     -0.620814
     11 C5          8.0050    2.8250   -0.6410 c3        1 MOL     -0.112588
     12 C6          7.2440    3.6120    0.4070 c         1 MOL      0.686760
     13 O3          6.4320    2.9480    1.1450 o         1 MOL     -0.705002
     14 O4          7.4260    4.8490    0.4410 o         1 MOL     -0.705002
     15 H4          6.7210    3.7570   -3.3360 hn        1 MOL      0.298414
     16 H5          7.8730    2.0110   -2.6270 h1        1 MOL      0.015661
     17 H6          8.7800    3.4670   -1.0480 hc        1 MOL      0.016029
     18 H7          8.5280    1.9910   -0.1780 hc        1 MOL      0.016029
     19 N2          5.9230    0.5020   -2.8190 n         1 MOL     -0.591382
     20 C7          5.1650   -0.8070   -3.0070 c3        1 MOL      0.327415
     21 C8          5.9410   -2.0400   -2.4220 c         1 MOL      0.338978
     22 O5          6.2470   -2.9140   -3.2530 o         1 MOL     -0.539426
     23 C9          3.6690   -0.7260   -2.6140 c3        1 MOL      0.379902
     24 C10         2.9710   -2.0230   -3.0070 c3        1 MOL     -0.122097
     25 C11         3.0050    0.5040   -3.1970 c3        1 MOL     -0.395272
     26 C12         3.1030   -2.4430   -4.4390 c3        1 MOL     -0.194107
     27 H8          6.2230    1.1150   -3.5700 hn        1 MOL      0.268028
     28 H9          5.1500   -0.9420   -4.0880 h1        1 MOL     -0.025078
     29 H10         3.6590   -0.6570   -1.5220 hc        1 MOL     -0.205339
     30 H11         1.9160   -1.9880   -2.7420 hc        1 MOL      0.082961
     31 H12         3.4210   -2.8180   -2.4050 hc        1 MOL      0.082961
     32 H13         3.2760    0.6770   -4.2360 hc        1 MOL      0.074683
     33 H14         1.9210    0.3480   -3.1400 hc        1 MOL      0.074683
     34 H15         3.2380    1.3120   -2.5020 hc        1 MOL      0.074683
     35 H16         2.8130   -1.5930   -5.0700 hc        1 MOL      0.029594
     36 H17         4.1420   -2.7550   -4.5220 hc        1 MOL      0.029594
     37 H18         2.3890   -3.2190   -4.6980 hc        1 MOL      0.029594
     38 N3          6.3570   -2.0320   -1.1330 n         1 MOL     -0.172224
     39 C13         7.2180   -3.0870   -0.4970 c3        1 MOL      0.070374
     40 C14         6.6820   -4.5430   -0.2540 c         1 MOL      0.449449
     41 O6          7.4800   -5.4650   -0.5050 o         1 MOL     -0.578707
     42 C15         7.7960   -2.5170    0.8150 c3        1 MOL     -0.406138
     43 C16         8.4950   -1.2040    0.6970 c         1 MOL      0.893761
     44 O7          8.4550   -0.5630    1.7370 o         1 MOL     -0.764217
     45 O8          9.0840   -0.7810   -0.3180 o         1 MOL     -0.764217
     46 H19         6.1000   -1.2790   -0.5190 hn        1 MOL      0.301369
     47 H20         8.1010   -3.2370   -1.1130 h1        1 MOL      0.051790
     48 H21         8.5130   -3.3000    1.0820 hc        1 MOL      0.107537
     49 H22         7.0760   -2.6740    1.6070 hc        1 MOL      0.107537
     50 N4          5.4420   -4.7590    0.1620 n         1 MOL     -0.321124
     51 C17         4.4000   -3.7890    0.4320 c3        1 MOL      0.145132
     52 C18         3.1970   -4.5150    0.9980 c         1 MOL      0.537250
     53 O9          3.0670   -5.7350    0.8950 o         1 MOL     -0.580636
     54 H23         5.0930   -5.7120    0.1880 hn        1 MOL      0.230861
     55 H24         4.1190   -3.2540   -0.4830 h1        1 MOL     -0.031023
     56 H25         4.8590   -3.1320    1.1690 h1        1 MOL     -0.031023
     57 N5          2.3430   -3.9780    1.8310 n         1 MOL     -0.405344
     58 C19         2.3330   -2.5920    2.4930 c3        1 MOL      0.384104
     59 C20         2.4060   -1.4890    1.4290 c         1 MOL      0.262828
     60 O10         3.4540   -1.0310    0.9310 o         1 MOL     -0.516556
     61 C21         3.5010   -2.4950    3.5080 c3        1 MOL     -0.431678
     62 C22         3.6000   -3.4200    4.7230 c         1 MOL      0.736602
     63 O11         2.6970   -3.2700    5.6190 o         1 MOL     -0.727613
     64 O12         4.5040   -4.2660    4.8580 o         1 MOL     -0.727613
     65 H26         1.6930   -4.6060    2.2790 hn        1 MOL      0.273276
     66 H27         1.4410   -2.4740    3.1160 h1        1 MOL     -0.049045
     67 H28         3.5920   -1.5090    3.9450 hc        1 MOL      0.097677
     68 H29         4.4160   -2.6180    2.9330 hc        1 MOL      0.097677
     69 N6          1.3610   -0.8440    0.9180 n         1 MOL     -0.025713
     70 C23        -0.0550   -1.2160    1.1780 c3        1 MOL     -0.162760
     71 C24        -0.5730   -2.4840    0.4380 c         1 MOL      0.431354
     72 O13         0.0420   -2.9390   -0.5470 o         1 MOL     -0.551078
     73 H30         1.5700   -0.1730    0.1920 hn        1 MOL      0.199288
     74 H31        -0.6920   -0.3760    0.8840 h1        1 MOL      0.085011
     75 H32        -0.1730   -1.3750    2.2460 h1        1 MOL      0.085011
     76 N7         -1.8050   -2.8950    0.7320 n         1 MOL     -0.355701
     77 C25        -2.3630   -4.1480    0.1880 c3        1 MOL     -0.043944
     78 C26        -3.0830   -4.1740   -1.1660 c         1 MOL      0.296734
     79 O14        -3.0820   -5.2420   -1.8100 o         1 MOL     -0.504650
     80 C27        -3.1080   -4.9380    1.2230 c3        1 MOL      0.029194
     81 C28        -4.4030   -4.4070    1.8480 c3        1 MOL     -0.137047
     82 C29        -5.4990   -4.1030    0.7600 c         1 MOL      0.495140
     83 N8         -6.1760   -5.0820    0.1560 n         1 MOL     -0.710795
     84 O15        -5.8580   -2.9600    0.5520 o         1 MOL     -0.438550
     85 H33        -2.3380   -2.5240    1.5060 hn        1 MOL      0.272350
     86 H34        -1.4690   -4.7100   -0.0700 h1        1 MOL      0.162402
     87 H35        -2.4420   -5.2330    2.0250 hc        1 MOL      0.021591
     88 H36        -3.3980   -5.9080    0.8190 hc        1 MOL      0.021591
     89 H37        -4.2470   -3.4690    2.3840 hc        1 MOL      0.064349
     90 H38        -4.8060   -5.1510    2.5400 hc        1 MOL      0.064349
     91 H39        -6.1400   -6.0530    0.4470 hn        1 MOL      0.360696
     92 H40        -6.9420   -4.7870   -0.4320 hn        1 MOL      0.360696
     93 N9         -3.5020   -2.9860   -1.6260 n         1 MOL     -0.017551
     94 C30        -3.9510   -2.6210   -2.9460 c3        1 MOL     -0.077188
     95 C31        -5.3430   -1.9610   -3.0350 c         1 MOL      0.350751
     96 O16        -5.6630   -1.4910   -4.1260 o         1 MOL     -0.520383
     97 C32        -2.8820   -1.6790   -3.6360 c3        1 MOL      0.115631
     98 C33        -1.4170   -2.1830   -3.6760 c3        1 MOL     -0.171538
     99 C34        -2.8050   -0.3550   -2.8210 c3        1 MOL     -0.171538
    100 H41        -3.5400   -2.2420   -0.9500 hn        1 MOL      0.163705
    101 H42        -3.9760   -3.5390   -3.5300 h1        1 MOL      0.095381
    102 H43        -3.1580   -1.4140   -4.6550 hc        1 MOL      0.012955
    103 H44        -1.1350   -2.5530   -2.6950 hc        1 MOL      0.045903
    104 H45        -1.3250   -2.9910   -4.3930 hc        1 MOL      0.045903
    105 H46        -0.6690   -1.4440   -3.9770 hc        1 MOL      0.045903
    106 H47        -2.5190   -0.5460   -1.7850 hc        1 MOL      0.045903
    107 H48        -2.1650    0.3630   -3.3360 hc        1 MOL      0.045903
    108 H49        -3.7990    0.0660   -2.6680 hc        1 MOL      0.045903
    109 N10        -6.1760   -1.8110   -1.9760 n         1 MOL     -0.077950
    110 C35        -7.5160   -1.1890   -2.0890 c3        1 MOL     -0.081063
    111 C36        -7.5760    0.2060   -1.5400 c         1 MOL      0.669002
    112 O17        -8.6700    0.7380   -1.5600 o         1 MOL     -0.597559
    113 C37        -8.5290   -2.1100   -1.2620 c3        1 MOL     -0.360221
    114 C38        -8.8070   -3.5040   -1.7390 c         1 MOL      0.688784
    115 N11        -9.2170   -3.6540   -2.9320 n         1 MOL     -0.762674
    116 O18        -8.6580   -4.4240   -0.9920 o         1 MOL     -0.592658
    117 H50        -5.8930   -2.1130   -1.0530 hn        1 MOL      0.011473
    118 H51        -7.8230   -1.0760   -3.1160 h1        1 MOL      0.078769
    119 H52        -9.5320   -1.6600   -1.2720 hc        1 MOL      0.136623
    120 H53        -8.2680   -2.1620   -0.2140 hc        1 MOL      0.136623
    121 H54        -9.2300   -2.7610   -3.4050 hn        1 MOL      0.374886
    122 H55        -9.4160   -4.5950   -3.2290 hn        1 MOL      0.374886
    123 N12        -6.4900    0.7140   -1.0160 n         1 MOL     -0.558747
    124 C39        -6.4070    2.0510   -0.2670 c3        1 MOL      0.333568
    125 C40        -5.0270    2.6220   -0.0870 c         1 MOL      0.382859
    126 O19        -3.9240    2.0300   -0.3460 o         1 MOL     -0.464928
    127 C41        -7.4300    2.1460    0.9350 c3        1 MOL     -0.304183
    128 C42        -7.0480    1.4750    2.2220 ca        1 MOL      0.171197
    129 C43        -6.8620    2.2040    3.4370 ca        1 MOL     -0.224591
    130 C44        -6.8740    0.0670    2.2270 ca        1 MOL     -0.224591
    131 C45        -6.4170    1.5000    4.5580 ca        1 MOL     -0.291102
    132 C46        -6.5270   -0.6550    3.3730 ca        1 MOL     -0.291102
    133 C47        -6.2490    0.0760    4.5590 ca        1 MOL      0.391563
    134 O20        -5.7500   -0.5880    5.5930 oh        1 MOL     -0.507823
    135 H56        -5.7490    0.0380   -0.9700 hn        1 MOL      0.319131
    136 H57        -6.8080    2.7290   -1.0140 h1        1 MOL      0.011600
    137 H58        -8.4630    1.8420    0.7560 hc        1 MOL      0.091175
    138 H59        -7.5190    3.2120    1.1430 hc        1 MOL      0.091175
    139 H60        -6.9620    3.2810    3.4240 ha        1 MOL      0.154741
    140 H61        -7.0460   -0.4500    1.2950 ha        1 MOL      0.154741
    141 H62        -6.1150    2.0660    5.4300 ha        1 MOL      0.153471
    142 H63        -6.3020   -1.7120    3.3030 ha        1 MOL      0.153471
    143 H64        -5.5750    0.0380    6.3030 ho        1 MOL      0.393290
    144 N13        -4.9880    3.8310    0.5510 n         1 MOL     -0.461419
    145 C48        -3.9490    4.7370    1.0430 c3        1 MOL      0.027982
    146 C49        -2.7970    5.1820    0.1130 c         1 MOL      0.223037
    147 O21        -2.4870    6.3690    0.0390 o         1 MOL     -0.499661
    148 C50        -3.4790    4.0770    2.3780 c3        1 MOL     -0.193245
    149 C51        -2.2490    4.6880    3.0990 c3        1 MOL     -0.395812
    150 C52        -1.7950    4.3040    4.5110 c         1 MOL      0.781746
    151 O22        -0.9090    3.4460    4.6440 o         1 MOL     -0.752471
    152 O23        -2.2420    4.9300    5.4900 o         1 MOL     -0.752471
    153 H65        -5.8840    4.2800    0.6270 hn        1 MOL      0.279870
    154 H66        -4.4290    5.6410    1.4140 h1        1 MOL      0.099100
    155 H67        -3.1370    3.0550    2.2090 hc        1 MOL      0.126759
    156 H68        -4.2650    4.0600    3.1250 hc        1 MOL      0.126759
    157 H69        -2.3100    5.7720    3.1200 hc        1 MOL      0.107776
    158 H70        -1.4160    4.5160    2.4110 hc        1 MOL      0.107776
    159 N14        -2.1740    4.2850   -0.6390 n         1 MOL      0.081048
    160 C53        -1.0750    4.5010   -1.6160 c3        1 MOL     -0.125069
    161 C54        -1.5860    5.3550   -2.8340 c         1 MOL      0.460442
    162 O24        -0.8390    6.2360   -3.3150 o         1 MOL     -0.533235
    163 C55        -0.5830    3.0910   -2.1190 c3        1 MOL      0.202409
    164 C56        -0.4860    1.9590   -1.0950 c3        1 MOL      0.277504
    165 C57         0.6250    2.2570   -0.0250 c         1 MOL      0.592606
    166 O25         0.3170    2.9760    0.9510 o         1 MOL     -0.689280
    167 O26         1.7730    1.7530   -0.1090 o         1 MOL     -0.689280
    168 H71        -2.5850    3.3730   -0.5710 hn        1 MOL      0.087255
    169 H72        -0.2330    4.9500   -1.0970 h1        1 MOL      0.138152
    170 H73         0.3900    3.2020   -2.5900 hc        1 MOL     -0.111090
    171 H74        -1.3580    2.8010   -2.8310 hc        1 MOL     -0.111090
    172 H75        -0.3210    0.9680   -1.5230 hc        1 MOL     -0.084213
    173 H76        -1.4440    1.8490   -0.5860 hc        1 MOL     -0.084213
    174 N15        -2.8800    5.2810   -3.1590 n         1 MOL     -0.189567
    175 C58        -3.5920    6.2410   -4.0420 c3        1 MOL     -0.412442
    176 H77        -4.6660    6.1700   -3.8640 h1        1 MOL      0.146393
    177 H78        -3.2550    7.2540   -3.8250 h1        1 MOL      0.146393
    178 H79        -3.3810    6.0030   -5.0840 h1        1 MOL      0.146393
    179 H80        -3.4600    4.5950   -2.6900 hn        1 MOL      0.210601
    180 Ca1         4.1960    1.8680    1.1490 Ca        1 MOL      1.845789
    181 O27         3.9010    4.2290    2.2620 oh        1 MOL     -0.970585
    182 H81         2.9580    4.3980    2.3250 ho        1 MOL      0.460058
    183 H82         4.3040    5.0020    2.6590 ho        1 MOL      0.460058
    184 O28         5.8890    0.1890    2.6660 oh        1 MOL     -0.970585
    185 H83         5.6770   -0.1560    3.5380 ho        1 MOL      0.460058
    186 H84         6.8440    0.1530    2.6140 ho        1 MOL      0.460058
    187 O29         2.5570    1.5690    3.2650 oh        1 MOL     -0.970585
    188 H85         2.7770    1.9120    4.1270 ho        1 MOL      0.460058
    189 H86         1.6040    1.4840    3.2740 ho        1 MOL      0.460058
@<TRIPOS>BOND
     1    1    2 1   
     2    1    4 1   
     3    1    5 1   
     4    1    6 1   
     5    2    3 2   
     6    2    7 1   
     7    7    8 1   
     8    7   15 1   
     9    8    9 1   
    10    8   11 1   
    11    8   16 1   
    12    9   10 2   
    13    9   19 1   
    14   11   12 1   
    15   11   17 1   
    16   11   18 1   
    17   12   13 1   
    18   12   14 1   
    19   19   20 1   
    20   19   27 1   
    21   20   21 1   
    22   20   23 1   
    23   20   28 1   
    24   21   22 2   
    25   21   38 1   
    26   23   24 1   
    27   23   25 1   
    28   23   29 1   
    29   24   26 1   
    30   24   30 1   
    31   24   31 1   
    32   25   32 1   
    33   25   33 1   
    34   25   34 1   
    35   26   35 1   
    36   26   36 1   
    37   26   37 1   
    38   38   39 1   
    39   38   46 1   
    40   39   40 1   
    41   39   42 1   
    42   39   47 1   
    43   40   41 2   
    44   40   50 1   
    45   42   43 1   
    46   42   48 1   
    47   42   49 1   
    48   43   44 1   
    49   43   45 1   
    50   50   51 1   
    51   50   54 1   
    52   51   52 1   
    53   51   55 1   
    54   51   56 1   
    55   52   53 2   
    56   52   57 1   
    57   57   58 1   
    58   57   65 1   
    59   58   59 1   
    60   58   61 1   
    61   58   66 1   
    62   59   60 2   
    63   59   69 1   
    64   61   62 1   
    65   61   67 1   
    66   61   68 1   
    67   62   63 1   
    68   62   64 1   
    69   69   70 1   
    70   69   73 1   
    71   70   71 1   
    72   70   74 1   
    73   70   75 1   
    74   71   72 2   
    75   71   76 1   
    76   76   77 1   
    77   76   85 1   
    78   77   78 1   
    79   77   80 1   
    80   77   86 1   
    81   78   79 2   
    82   78   93 1   
    83   80   81 1   
    84   80   87 1   
    85   80   88 1   
    86   81   82 1   
    87   81   89 1   
    88   81   90 1   
    89   82   83 1   
    90   82   84 2   
    91   83   91 1   
    92   83   92 1   
    93   93   94 1   
    94   93  100 1   
    95   94   95 1   
    96   94   97 1   
    97   94  101 1   
    98   95   96 2   
    99   95  109 1   
   100   97   98 1   
   101   97   99 1   
   102   97  102 1   
   103   98  103 1   
   104   98  104 1   
   105   98  105 1   
   106   99  106 1   
   107   99  107 1   
   108   99  108 1   
   109  109  110 1   
   110  109  117 1   
   111  110  111 1   
   112  110  113 1   
   113  110  118 1   
   114  111  112 2   
   115  111  123 1   
   116  113  114 1   
   117  113  119 1   
   118  113  120 1   
   119  114  115 1   
   120  114  116 2   
   121  115  121 1   
   122  115  122 1   
   123  123  124 1   
   124  123  135 1   
   125  124  125 1   
   126  124  127 1   
   127  124  136 1   
   128  125  126 2   
   129  125  144 1   
   130  127  128 1   
   131  127  137 1   
   132  127  138 1   
   133  128  129 ar  
   134  128  130 ar  
   135  129  131 ar  
   136  129  139 1   
   137  130  132 ar  
   138  130  140 1   
   139  131  133 ar  
   140  131  141 1   
   141  132  133 ar  
   142  132  142 1   
   143  133  134 1   
   144  134  143 1   
   145  144  145 1   
   146  144  153 1   
   147  145  146 1   
   148  145  148 1   
   149  145  154 1   
   150  146  147 2   
   151  146  159 1   
   152  148  149 1   
   153  148  155 1   
   154  148  156 1   
   155  149  150 1   
   156  149  157 1   
   157  149  158 1   
   158  150  151 1   
   159  150  152 1   
   160  159  160 1   
   161  159  168 1   
   162  160  161 1   
   163  160  163 1   
   164  160  169 1   
   165  161  162 2   
   166  161  174 1   
   167  163  164 1   
   168  163  170 1   
   169  163  171 1   
   170  164  165 1   
   171  164  172 1   
   172  164  173 1   
   173  165  166 1   
   174  165  167 1   
   175  174  175 1   
   176  174  179 1   
   177  175  176 1   
   178  175  177 1   
   179  175  178 1   
   180  181  182 1   
   181  181  183 1   
   182  184  185 1   
   183  184  186 1   
   184  187  188 1   
   185  187  189 1   
@<TRIPOS>SUBSTRUCTURE
     1 MOL         1 TEMP              0 ****  ****    0 ROOT
