@<TRIPOS>MOLECULE
MOL
  195   189     1     0     0
SMALL
resp


@<TRIPOS>ATOM
      1 C1          6.4030    0.8460    5.8520 c3        1 MOL     -0.396097
      2 C2          5.6520    0.8170    4.5160 c         1 MOL      0.865842
      3 O1          5.2960    1.8470    3.9970 o         1 MOL     -0.643193
      4 H1          5.6980    0.6830    6.6680 hc        1 MOL      0.091597
      5 H2          7.1580    0.0600    5.8620 hc        1 MOL      0.091597
      6 H3          6.8850    1.8160    5.9760 hc        1 MOL      0.091597
      7 N1          5.3890   -0.3630    3.9930 n         1 MOL     -0.682089
      8 C3          4.9340   -0.6010    2.5350 c3        1 MOL      0.622259
      9 C4          3.5030   -0.2790    2.1840 c         1 MOL     -0.138801
     10 O2          3.0120   -0.5200    1.0510 o         1 MOL     -0.047829
     11 C5          5.4000   -1.9350    2.1630 c3        1 MOL     -0.056592
     12 C6          6.7940   -2.4050    2.6840 c         1 MOL      0.622953
     13 O3          7.1600   -2.3570    3.8590 o         1 MOL     -0.670496
     14 O4          7.5690   -2.6120    1.7300 o         1 MOL     -0.670496
     15 H4          5.7200   -1.2050    4.4390 hn        1 MOL      0.256353
     16 H5          5.5140    0.0910    1.9170 h1        1 MOL      0.006128
     17 H6          5.2850   -2.0430    1.0890 hc        1 MOL     -0.083426
     18 H7          4.7020   -2.6060    2.6570 hc        1 MOL     -0.083426
     19 N2          2.6890    0.0990    3.1250 n         1 MOL     -0.218323
     20 C7          1.2380    0.3210    2.8740 c3        1 MOL      0.293949
     21 C8          0.9860    1.7130    2.4400 c         1 MOL      0.371623
     22 O5          1.5900    2.6410    3.0180 o         1 MOL     -0.513119
     23 C9          0.5380   -0.0220    4.2370 c3        1 MOL     -0.055556
     24 C10         0.4650   -1.5060    4.5590 c3        1 MOL     -0.070087
     25 C11        -0.6600   -1.5890    5.6000 c3        1 MOL     -0.009257
     26 C12        -0.9440   -3.0450    5.8520 c3        1 MOL      0.030093
     27 N3         -1.9960   -3.1750    6.9040 n4        1 MOL     -0.183832
     28 H8          3.0410    0.2550    4.0580 hn        1 MOL      0.195697
     29 H9          0.9730   -0.2790    2.0090 h1        1 MOL     -0.063482
     30 H10        -0.4750    0.3970    4.1990 hc        1 MOL      0.036692
     31 H11         0.9570    0.5910    5.0390 hc        1 MOL      0.036692
     32 H12         1.4390   -1.8800    4.8620 hc        1 MOL      0.042435
     33 H13         0.0610   -2.0940    3.7330 hc        1 MOL      0.042435
     34 H14        -1.6060   -1.1950    5.2170 hc        1 MOL      0.023630
     35 H15        -0.3370   -1.0910    6.5100 hc        1 MOL      0.023630
     36 H16        -0.0570   -3.5600    6.2110 hx        1 MOL      0.081381
     37 H17        -1.3840   -3.5330    4.9880 hx        1 MOL      0.081381
     38 H18        -2.2550   -4.1340    7.0730 hn        1 MOL      0.272524
     39 H19        -1.6010   -2.7980    7.7550 hn        1 MOL      0.272524
     40 H20        -2.8340   -2.6150    6.8580 hn        1 MOL      0.272524
     41 N4          0.0830    2.0180    1.5390 n         1 MOL     -0.188887
     42 C13        -0.8690    1.1540    0.7610 c3        1 MOL     -0.290623
     43 C14        -1.4750   -0.0880    1.4940 c         1 MOL      0.499480
     44 O6         -0.9670   -1.1830    1.4720 o         1 MOL     -0.516920
     45 C15        -0.1220    0.5930   -0.5020 c3        1 MOL     -0.656510
     46 C16         0.2940    1.6800   -1.4970 c         1 MOL      0.881003
     47 O7         -0.2120    2.8360   -1.4920 o         1 MOL     -0.732627
     48 O8          1.1270    1.2700   -2.3150 o         1 MOL     -0.732627
     49 H21         0.3290    2.8560    1.0320 hn        1 MOL      0.169358
     50 H22        -1.7620    1.6710    0.4090 h1        1 MOL      0.097205
     51 H23        -0.7670   -0.1510   -0.9620 hc        1 MOL      0.235296
     52 H24         0.8420    0.2600   -0.1000 hc        1 MOL      0.235296
     53 N5         -2.5700    0.1040    2.2180 n         1 MOL     -0.198555
     54 C17        -3.4450    1.2530    2.3030 c3        1 MOL     -0.072337
     55 C18        -4.7500    1.1400    3.1560 c         1 MOL      0.548531
     56 O9         -4.9480    0.1120    3.7850 o         1 MOL     -0.538126
     57 H25        -2.9960   -0.7190    2.6190 hn        1 MOL      0.229060
     58 H26        -3.7260    1.4520    1.2650 h1        1 MOL      0.057846
     59 H27        -2.8570    2.1300    2.5840 h1        1 MOL      0.057846
     60 N6         -5.5870    2.1510    3.2270 n         1 MOL     -0.504628
     61 C19        -5.6580    3.3120    2.2780 c3        1 MOL      0.152221
     62 C20        -6.3360    2.9670    0.9110 c         1 MOL      0.418002
     63 O10        -7.1690    2.0530    0.8550 o         1 MOL     -0.417168
     64 C21        -6.4240    4.4550    2.8960 c3        1 MOL     -0.246950
     65 C22        -7.8200    4.1690    3.4320 c         1 MOL      0.752641
     66 O11        -8.0520    3.2000    4.1610 o         1 MOL     -0.662281
     67 O12        -8.8130    4.9420    3.2050 o         1 MOL     -0.662281
     68 H28        -6.4470    2.0000    3.7410 hn        1 MOL      0.322419
     69 H29        -4.6320    3.6110    2.0480 h1        1 MOL      0.002411
     70 H30        -6.4560    5.2970    2.2170 hc        1 MOL      0.034814
     71 H31        -5.9480    4.8350    3.8020 hc        1 MOL      0.034814
     72 N7         -5.8260    3.5330   -0.2010 n         1 MOL     -0.204948
     73 C23        -6.3900    3.4090   -1.5330 c3        1 MOL     -0.287375
     74 C24        -6.1630    2.0620   -2.1210 c         1 MOL      0.475541
     75 O13        -7.1480    1.5780   -2.7060 o         1 MOL     -0.540672
     76 H32        -5.1170    4.2380   -0.0690 hn        1 MOL      0.185667
     77 H33        -5.9010    4.1470   -2.1770 h1        1 MOL      0.134473
     78 H34        -7.4650    3.6080   -1.5610 h1        1 MOL      0.134473
     79 N8         -5.0800    1.3810   -1.8080 n         1 MOL     -0.214617
     80 C25        -4.6770    0.1060   -2.4470 c3        1 MOL     -0.010240
     81 C26        -4.8720   -1.0810   -1.4730 c         1 MOL      0.518111
     82 O14        -4.5510   -0.9300   -0.2640 o         1 MOL     -0.530324
     83 C27        -3.1060    0.2010   -2.7500 c3        1 MOL      0.507064
     84 C28        -2.7590    1.2170   -3.7790 c3        1 MOL     -0.052122
     85 O15        -2.6280   -0.9910   -3.3540 oh        1 MOL     -0.643947
     86 H35        -4.4670    1.8830   -1.1820 hn        1 MOL      0.109549
     87 H36        -5.1850   -0.0370   -3.3960 h1        1 MOL      0.054773
     88 H37        -2.5630    0.4690   -1.8430 h1        1 MOL      0.017306
     89 H38        -2.0130   -1.4170   -2.7410 ho        1 MOL      0.370930
     90 H39        -1.7120    1.4660   -3.6870 hc        1 MOL     -0.021429
     91 H40        -2.9970    0.9920   -4.8220 hc        1 MOL     -0.021429
     92 H41        -3.2230    2.1850   -3.6050 hc        1 MOL     -0.021429
     93 N9         -5.2940   -2.1790   -1.9710 n         1 MOL     -0.398751
     94 C29        -5.6730   -3.3710   -1.1810 c3        1 MOL     -0.147807
     95 C30        -4.4050   -4.1840   -0.7840 c         1 MOL      0.393519
     96 O16        -4.4640   -5.0450    0.1510 o         1 MOL     -0.524911
     97 C31        -6.6250   -4.2340   -2.0420 c3        1 MOL      0.226244
     98 C32        -7.1510   -5.4940   -1.3140 c3        1 MOL      0.041031
     99 C33        -6.0670   -4.7680   -3.3680 c3        1 MOL     -0.254609
    100 C34        -8.0260   -5.0390   -0.1650 c3        1 MOL     -0.160754
    101 H42        -5.4840   -2.2100   -2.9580 hn        1 MOL      0.269024
    102 H43        -6.1310   -3.1050   -0.2340 h1        1 MOL      0.166817
    103 H44        -7.4960   -3.6420   -2.3320 hc        1 MOL      0.004146
    104 H45        -6.3620   -6.1370   -0.9120 hc        1 MOL      0.008207
    105 H46        -7.8300   -6.0300   -1.9720 hc        1 MOL      0.008207
    106 H47        -5.2980   -5.4710   -3.0450 hc        1 MOL      0.055321
    107 H48        -6.8360   -5.3210   -3.8930 hc        1 MOL      0.055321
    108 H49        -5.8910   -3.9980   -4.1160 hc        1 MOL      0.055321
    109 H50        -7.4580   -4.5430    0.6160 hc        1 MOL      0.032145
    110 H51        -8.9000   -4.4610   -0.4800 hc        1 MOL      0.032145
    111 H52        -8.4100   -5.9190    0.3460 hc        1 MOL      0.032145
    112 N10        -3.2870   -4.0030   -1.4140 n         1 MOL     -0.046460
    113 C35        -2.0380   -4.7600   -1.2860 c3        1 MOL     -0.144138
    114 C36        -0.8880   -3.8020   -1.2440 c         1 MOL      0.508291
    115 O17        -1.0350   -2.6140   -1.7760 o         1 MOL     -0.465444
    116 C37        -1.9290   -5.6280   -2.5400 c3        1 MOL      0.267048
    117 C38        -2.1930   -4.9190   -3.8660 c3        1 MOL     -0.220926
    118 O18        -2.8580   -6.6800   -2.4670 oh        1 MOL     -0.583018
    119 H53        -3.1630   -3.1820   -2.0060 hn        1 MOL      0.083139
    120 H54        -2.0710   -5.3550   -0.3660 h1        1 MOL      0.100042
    121 H55        -0.9420   -6.0800   -2.6360 h1        1 MOL      0.009002
    122 H56        -2.4000   -7.5250   -2.4580 ho        1 MOL      0.387666
    123 H57        -1.5550   -4.0430   -3.9650 hc        1 MOL      0.066944
    124 H58        -1.8610   -5.5480   -4.6980 hc        1 MOL      0.066944
    125 H59        -3.2390   -4.6240   -3.9440 hc        1 MOL      0.066944
    126 N11         0.2150   -4.1580   -0.5630 n         1 MOL     -0.413295
    127 C39         1.3170   -3.2140   -0.1890 c3        1 MOL     -0.017924
    128 C40         2.2230   -2.9140   -1.4410 c         1 MOL      0.240878
    129 O19         2.2560   -3.6530   -2.4100 o         1 MOL     -0.507027
    130 C41         2.0850   -3.8720    0.9520 c3        1 MOL      0.302723
    131 C42         2.9470   -5.0500    0.4840 c3        1 MOL     -0.138180
    132 O20         1.2420   -4.3650    1.9150 oh        1 MOL     -0.626721
    133 H60         0.1440   -5.1290   -0.2830 hn        1 MOL      0.314315
    134 H61         0.9070   -2.2710    0.1500 h1        1 MOL      0.198195
    135 H62         2.7860   -3.1590    1.3750 h1        1 MOL      0.034899
    136 H63         1.7620   -4.4240    2.7260 ho        1 MOL      0.378374
    137 H64         3.3410   -5.6620    1.2990 hc        1 MOL      0.034834
    138 H65         2.4120   -5.7390   -0.1740 hc        1 MOL      0.034834
    139 H66         3.8670   -4.7180   -0.0010 hc        1 MOL      0.034834
    140 N12         2.9860   -1.8320   -1.3270 n         1 MOL      0.195076
    141 C43         3.9610   -1.3790   -2.3120 c3        1 MOL     -0.161812
    142 C44         4.2980    0.1200   -2.2340 c         1 MOL      0.637307
    143 O21         4.6720    0.7410   -3.2510 o         1 MOL     -0.646596
    144 C45         5.3010   -2.1590   -2.1790 c3        1 MOL     -0.021515
    145 C46         6.1840   -2.2100   -3.3810 c3        1 MOL      0.196500
    146 C47         7.3560   -3.1700   -3.4400 c3        1 MOL     -0.109222
    147 C48         8.5850   -2.6130   -2.7650 c3        1 MOL      0.104448
    148 N13         9.5820   -3.6750   -2.8710 n4        1 MOL     -0.256605
    149 H67         2.8380   -1.3420   -0.4650 hn        1 MOL     -0.203852
    150 H68         3.4660   -1.5210   -3.2640 h1        1 MOL      0.121328
    151 H69         5.1040   -3.1920   -1.8760 hc        1 MOL      0.018107
    152 H70         5.8240   -1.6900   -1.3450 hc        1 MOL      0.018107
    153 H71         6.6080   -1.2130   -3.5300 hc        1 MOL     -0.039854
    154 H72         5.5100   -2.3930   -4.2270 hc        1 MOL     -0.039854
    155 H73         7.6920   -3.2460   -4.4770 hc        1 MOL      0.021845
    156 H74         6.9920   -4.1330   -3.0870 hc        1 MOL      0.021845
    157 H75         8.3050   -2.3380   -1.7500 hx        1 MOL      0.067800
    158 H76         8.8450   -1.7480   -3.3780 hx        1 MOL      0.067800
    159 H77         9.6320   -4.0380   -3.8210 hn        1 MOL      0.295504
    160 H78        10.4780   -3.3810   -2.5280 hn        1 MOL      0.295504
    161 H79         9.1990   -4.5080   -2.4430 hn        1 MOL      0.295504
    162 N14         4.0310    0.8560   -1.1510 n         1 MOL      0.060823
    163 C49         4.3250    2.2730   -0.9720 c3        1 MOL     -0.709106
    164 C50         5.8290    2.4040   -0.6350 c         1 MOL      0.468877
    165 O22         6.3280    1.6550    0.1830 o         1 MOL     -0.479667
    166 C51         3.5090    2.6780    0.3140 c3        1 MOL      0.411628
    167 C52         3.7720    4.1740    0.6710 c3        1 MOL      0.118186
    168 C53         3.5840    5.1410   -0.4750 c         1 MOL      0.172825
    169 O23         2.6710    4.9440   -1.3300 o         1 MOL     -0.585928
    170 O24         4.3680    6.0930   -0.5420 o         1 MOL     -0.585928
    171 H80         3.7410    0.4470   -0.2720 hn        1 MOL      0.033355
    172 H81         3.9740    2.8750   -1.8010 h1        1 MOL      0.252642
    173 H82         3.9350    2.0830    1.1240 hc        1 MOL     -0.091046
    174 H83         2.4340    2.5870    0.1420 hc        1 MOL     -0.091046
    175 H84         4.7760    4.3000    1.0840 hc        1 MOL      0.027192
    176 H85         3.0540    4.3600    1.4770 hc        1 MOL      0.027192
    177 N15         6.4480    3.4840   -1.0960 n         1 MOL     -0.222457
    178 C54         7.9220    3.7060   -0.9810 c3        1 MOL     -0.067549
    179 H86         8.3400    3.8880   -1.9710 h1        1 MOL      0.058012
    180 H87         8.1120    4.5700   -0.3430 h1        1 MOL      0.058012
    181 H88         8.3900    2.8230   -0.5460 h1        1 MOL      0.058012
    182 H89         5.8960    3.9920   -1.7780 hn        1 MOL      0.310627
    183 Ca1         0.2860    5.3660   -2.2130 Ca        1 MOL      1.645957
    184 O25        -1.3410    4.1680   -4.0030 oh        1 MOL     -0.828660
    185 H90        -2.2450    4.2820   -4.2770 ho        1 MOL      0.412577
    186 H91        -1.0100    3.4440   -4.5430 ho        1 MOL      0.412577
    187 O26         1.5320    3.4950   -3.8410 oh        1 MOL     -0.828660
    188 H92         2.3350    3.4160   -4.3650 ho        1 MOL      0.412577
    189 H93         1.4330    2.6420   -3.4220 ho        1 MOL      0.412577
    190 O27        -1.1810    7.3260   -3.6780 oh        1 MOL     -0.828660
    191 H94        -2.1180    7.1520   -3.6180 ho        1 MOL      0.412577
    192 H95        -1.1090    8.0390   -4.3170 ho        1 MOL      0.412577
    193 O28         1.9630    6.5590   -3.8640 oh        1 MOL     -0.828660
    194 H96         1.7410    7.3990   -3.4760 ho        1 MOL      0.412577
    195 H97         2.9220    6.5390   -3.8630 ho        1 MOL      0.412577
@<TRIPOS>BOND
     1    1    2 1   
     2    1    4 1   
     3    1    5 1   
     4    1    6 1   
     5    2    3 2   
     6    2    7 1   
     7    7    8 1   
     8    7   15 1   
     9    8    9 1   
    10    8   11 1   
    11    8   16 1   
    12    9   10 2   
    13    9   19 1   
    14   11   12 1   
    15   11   17 1   
    16   11   18 1   
    17   12   13 1   
    18   12   14 1   
    19   19   20 1   
    20   19   28 1   
    21   20   21 1   
    22   20   23 1   
    23   20   29 1   
    24   21   22 2   
    25   21   41 1   
    26   23   24 1   
    27   23   30 1   
    28   23   31 1   
    29   24   25 1   
    30   24   32 1   
    31   24   33 1   
    32   25   26 1   
    33   25   34 1   
    34   25   35 1   
    35   26   27 1   
    36   26   36 1   
    37   26   37 1   
    38   27   38 1   
    39   27   39 1   
    40   27   40 1   
    41   41   42 1   
    42   41   49 1   
    43   42   43 1   
    44   42   45 1   
    45   42   50 1   
    46   43   44 2   
    47   43   53 1   
    48   45   46 1   
    49   45   51 1   
    50   45   52 1   
    51   46   47 1   
    52   46   48 1   
    53   53   54 1   
    54   53   57 1   
    55   54   55 1   
    56   54   58 1   
    57   54   59 1   
    58   55   56 2   
    59   55   60 1   
    60   60   61 1   
    61   60   68 1   
    62   61   62 1   
    63   61   64 1   
    64   61   69 1   
    65   62   63 2   
    66   62   72 1   
    67   64   65 1   
    68   64   70 1   
    69   64   71 1   
    70   65   66 1   
    71   65   67 1   
    72   72   73 1   
    73   72   76 1   
    74   73   74 1   
    75   73   77 1   
    76   73   78 1   
    77   74   75 2   
    78   74   79 1   
    79   79   80 1   
    80   79   86 1   
    81   80   81 1   
    82   80   83 1   
    83   80   87 1   
    84   81   82 2   
    85   81   93 1   
    86   83   84 1   
    87   83   85 1   
    88   83   88 1   
    89   84   90 1   
    90   84   91 1   
    91   84   92 1   
    92   85   89 1   
    93   93   94 1   
    94   93  101 1   
    95   94   95 1   
    96   94   97 1   
    97   94  102 1   
    98   95   96 2   
    99   95  112 1   
   100   97   98 1   
   101   97   99 1   
   102   97  103 1   
   103   98  100 1   
   104   98  104 1   
   105   98  105 1   
   106   99  106 1   
   107   99  107 1   
   108   99  108 1   
   109  100  109 1   
   110  100  110 1   
   111  100  111 1   
   112  112  113 1   
   113  112  119 1   
   114  113  114 1   
   115  113  116 1   
   116  113  120 1   
   117  114  115 2   
   118  114  126 1   
   119  116  117 1   
   120  116  118 1   
   121  116  121 1   
   122  117  123 1   
   123  117  124 1   
   124  117  125 1   
   125  118  122 1   
   126  126  127 1   
   127  126  133 1   
   128  127  128 1   
   129  127  130 1   
   130  127  134 1   
   131  128  129 2   
   132  128  140 1   
   133  130  131 1   
   134  130  132 1   
   135  130  135 1   
   136  131  137 1   
   137  131  138 1   
   138  131  139 1   
   139  132  136 1   
   140  140  141 1   
   141  140  149 1   
   142  141  142 1   
   143  141  144 1   
   144  141  150 1   
   145  142  143 2   
   146  142  162 1   
   147  144  145 1   
   148  144  151 1   
   149  144  152 1   
   150  145  146 1   
   151  145  153 1   
   152  145  154 1   
   153  146  147 1   
   154  146  155 1   
   155  146  156 1   
   156  147  148 1   
   157  147  157 1   
   158  147  158 1   
   159  148  159 1   
   160  148  160 1   
   161  148  161 1   
   162  162  163 1   
   163  162  171 1   
   164  163  164 1   
   165  163  166 1   
   166  163  172 1   
   167  164  165 2   
   168  164  177 1   
   169  166  167 1   
   170  166  173 1   
   171  166  174 1   
   172  167  168 1   
   173  167  175 1   
   174  167  176 1   
   175  168  169 1   
   176  168  170 1   
   177  177  178 1   
   178  177  182 1   
   179  178  179 1   
   180  178  180 1   
   181  178  181 1   
   182  184  185 1   
   183  184  186 1   
   184  187  188 1   
   185  187  189 1   
   186  190  191 1   
   187  190  192 1   
   188  193  194 1   
   189  193  195 1   
@<TRIPOS>SUBSTRUCTURE
     1 MOL         1 TEMP              0 ****  ****    0 ROOT
