@<TRIPOS>MOLECULE
MOL
  192   187     1     0     0
SMALL
resp


@<TRIPOS>ATOM
      1 C1         -3.8520    6.2430    3.7950 c3        1 MOL     -0.358154
      2 C2         -4.1610    4.8250    3.1100 c         1 MOL      0.680721
      3 O1         -4.3990    3.8990    3.8520 o         1 MOL     -0.565266
      4 H1         -2.8940    6.1950    4.3120 hc        1 MOL      0.088534
      5 H2         -3.8110    7.0160    3.0280 hc        1 MOL      0.088534
      6 H3         -4.6390    6.4810    4.5100 hc        1 MOL      0.088534
      7 N1         -4.0150    4.6900    1.7730 n         1 MOL     -0.637289
      8 C3         -4.1120    3.4090    1.0280 c3        1 MOL      0.170271
      9 C4         -2.7240    2.8780    0.5660 c         1 MOL      0.615142
     10 O2         -2.6760    1.7790    0.0790 o         1 MOL     -0.559413
     11 C5         -4.9190    3.6910   -0.2120 c3        1 MOL     -0.276279
     12 C6         -4.5000    4.8340   -1.1340 c         1 MOL      0.668305
     13 O3         -3.8630    4.6570   -2.2120 o         1 MOL     -0.726703
     14 O4         -4.5260    6.0090   -0.6330 o         1 MOL     -0.726703
     15 H4         -3.8220    5.5050    1.2050 hn        1 MOL      0.359047
     16 H5         -4.5900    2.6370    1.6250 h1        1 MOL      0.079705
     17 H6         -5.9550    3.9160    0.0300 hc        1 MOL      0.079756
     18 H7         -4.7910    2.7910   -0.8090 hc        1 MOL      0.079756
     19 N2         -1.6290    3.5710    0.7770 n         1 MOL     -0.417329
     20 C7         -0.2360    3.1640    0.4060 c3        1 MOL      0.084943
     21 C8          0.4370    2.7090    1.6880 c         1 MOL      0.432631
     22 O5          0.3570    3.4170    2.6900 o         1 MOL     -0.573088
     23 C9          0.4170    4.3390   -0.3810 c3        1 MOL      0.031417
     24 C10        -0.2190    4.5590   -1.7580 c3        1 MOL     -0.273425
     25 C11         0.2390    5.9350   -2.2090 c3        1 MOL      0.034351
     26 C12        -0.1470    6.1970   -3.6850 c3        1 MOL      0.037617
     27 N3         -1.5370    6.0350   -4.0020 n4        1 MOL     -0.208977
     28 H8         -1.7160    4.5650    0.9490 hn        1 MOL      0.236680
     29 H9         -0.2780    2.3390   -0.3010 h1        1 MOL      0.041994
     30 H10         1.4920    4.1970   -0.4020 hc        1 MOL      0.036472
     31 H11         0.2810    5.2280    0.2360 hc        1 MOL      0.036472
     32 H12        -1.3000    4.6490   -1.6140 hc        1 MOL      0.100362
     33 H13         0.0220    3.7350   -2.4190 hc        1 MOL      0.100362
     34 H14         1.3030    6.1490   -2.0670 hc        1 MOL      0.045577
     35 H15        -0.2160    6.6570   -1.5340 hc        1 MOL      0.045577
     36 H16         0.4740    5.7800   -4.4660 hx        1 MOL      0.052496
     37 H17         0.0930    7.2620   -3.6530 hx        1 MOL      0.052496
     38 H18        -2.0840    6.5940   -3.3570 hn        1 MOL      0.280775
     39 H19        -1.7350    6.2900   -4.9550 hn        1 MOL      0.280775
     40 H20        -1.9210    5.1010   -3.9340 hn        1 MOL      0.280775
     41 N4          1.1940    1.6440    1.7140 n         1 MOL     -0.068703
     42 C13         1.5440    0.7020    0.6700 c3        1 MOL      0.002470
     43 C14         2.0690    1.2100   -0.6860 c         1 MOL      0.369494
     44 O6          1.6130    0.9040   -1.7630 o         1 MOL     -0.542707
     45 C15         0.4700   -0.4200    0.6150 c3        1 MOL      0.510809
     46 C16        -0.0730   -0.9180    2.0080 c         1 MOL      0.272738
     47 O7         -1.2050   -0.6160    2.4010 o         1 MOL     -0.649269
     48 O8          0.6830   -1.5640    2.7790 o         1 MOL     -0.649269
     49 H21         1.7440    1.5850    2.5530 hn        1 MOL      0.143806
     50 H22         2.3800    0.0910    1.0170 h1        1 MOL      0.032648
     51 H23         0.8470   -1.2240   -0.0040 hc        1 MOL     -0.079375
     52 H24        -0.3030    0.0400    0.0100 hc        1 MOL     -0.079375
     53 N5          3.0330    2.1550   -0.7040 n         1 MOL     -0.334617
     54 C17         3.9430    2.5610    0.4190 c3        1 MOL      0.141498
     55 C18         4.8320    3.6160   -0.1480 c         1 MOL      0.400226
     56 O9          4.3460    4.4010   -1.0090 o         1 MOL     -0.551459
     57 H25         3.4000    2.5150   -1.5750 hn        1 MOL      0.289195
     58 H26         4.4170    1.6760    0.8500 h1        1 MOL     -0.005988
     59 H27         3.5320    3.1580    1.2300 h1        1 MOL     -0.005988
     60 N6          5.9960    3.8550    0.4720 n         1 MOL     -0.356920
     61 C19         6.6140    3.1760    1.6540 c3        1 MOL      0.155356
     62 C20         7.3500    1.8680    1.1580 c         1 MOL      0.578706
     63 O10         7.4260    1.6100   -0.0410 o         1 MOL     -0.466597
     64 C21         7.6090    4.1420    2.4190 c3        1 MOL     -0.365153
     65 C22         8.7110    4.7970    1.5250 c         1 MOL      0.724708
     66 O11         8.6960    4.6330    0.2870 o         1 MOL     -0.646881
     67 O12         9.6820    5.4340    2.0240 o         1 MOL     -0.646881
     68 H28         6.5850    4.6250    0.1860 hn        1 MOL      0.284370
     69 H29         5.7840    2.8790    2.3030 h1        1 MOL     -0.018624
     70 H30         8.1050    3.4710    3.1280 hc        1 MOL      0.071918
     71 H31         7.0490    4.9090    2.9510 hc        1 MOL      0.071918
     72 N7          7.8930    1.1020    2.1120 n         1 MOL     -0.411792
     73 C23         8.3620   -0.2480    1.8650 c3        1 MOL     -0.147267
     74 C24         7.3580   -1.1760    1.2520 c         1 MOL      0.376222
     75 O13         7.7840   -1.8960    0.3010 o         1 MOL     -0.515266
     76 H32         7.8010    1.3120    3.0940 hn        1 MOL      0.263568
     77 H33         8.7060   -0.7050    2.7960 h1        1 MOL      0.133772
     78 H34         9.2600   -0.2340    1.2360 h1        1 MOL      0.133772
     79 N8          6.0870   -1.1910    1.7080 n         1 MOL     -0.284418
     80 C25         5.1120   -2.1310    1.1650 c3        1 MOL      0.247583
     81 C26         4.6590   -1.7780   -0.2720 c         1 MOL      0.493694
     82 O14         4.5140   -0.5860   -0.6420 o         1 MOL     -0.428629
     83 C27         3.9060   -2.1860    2.1130 c3        1 MOL     -0.021023
     84 C28         4.1490   -2.7630    3.5380 c3        1 MOL     -0.224329
     85 O15         2.8770   -2.9340    1.5970 oh        1 MOL     -0.543864
     86 H35         5.9000   -0.6280    2.5270 hn        1 MOL      0.215445
     87 H36         5.5620   -3.1220    1.2660 h1        1 MOL      0.043375
     88 H37         3.4330   -1.2190    2.3080 h1        1 MOL      0.054012
     89 H38         2.0710   -2.8210    2.0950 ho        1 MOL      0.315537
     90 H39         5.0930   -2.3510    3.8940 hc        1 MOL      0.062568
     91 H40         3.2840   -2.7970    4.2000 hc        1 MOL      0.062568
     92 H41         4.5260   -3.7860    3.5870 hc        1 MOL      0.062568
     93 N9          4.6220   -2.7990   -1.1770 n         1 MOL     -0.617584
     94 C29         4.2340   -2.6360   -2.5770 c3        1 MOL     -0.056534
     95 C30         2.9500   -3.4220   -2.9150 c         1 MOL      0.393425
     96 O16         2.6230   -3.4550   -4.1150 o         1 MOL     -0.520443
     97 C31         5.4220   -2.9300   -3.4810 c3        1 MOL      0.129970
     98 C32         6.0030   -4.3610   -3.3400 c3        1 MOL      0.232387
     99 C33         6.4360   -1.8110   -3.2760 c3        1 MOL     -0.362699
    100 C34         6.9580   -4.5480   -4.5440 c3        1 MOL     -0.344779
    101 H42         4.7600   -3.7580   -0.8760 hn        1 MOL      0.323364
    102 H43         3.9680   -1.5870   -2.7030 h1        1 MOL      0.159162
    103 H44         5.0440   -2.8170   -4.4960 hc        1 MOL      0.025310
    104 H45         5.1520   -5.0440   -3.4190 hc        1 MOL     -0.033631
    105 H46         6.4110   -4.5400   -2.3470 hc        1 MOL     -0.033631
    106 H47         7.3370   -2.1240   -3.8170 hc        1 MOL      0.114112
    107 H48         6.1240   -0.8160   -3.5920 hc        1 MOL      0.114112
    108 H49         6.7870   -1.6630   -2.2570 hc        1 MOL      0.114112
    109 H50         7.9760   -4.2550   -4.2860 hc        1 MOL      0.075623
    110 H51         6.9690   -5.6290   -4.7230 hc        1 MOL      0.075623
    111 H52         6.5980   -3.9640   -5.3910 hc        1 MOL      0.075623
    112 N10         2.2550   -4.0750   -1.9270 n         1 MOL     -0.174064
    113 C35         0.9130   -4.6680   -2.1320 c3        1 MOL     -0.099164
    114 C36        -0.1180   -3.5960   -1.7560 c         1 MOL      0.603678
    115 O17        -0.3390   -3.3410   -0.5550 o         1 MOL     -0.595996
    116 C37         0.6640   -5.9570   -1.3120 c3        1 MOL      0.329830
    117 C38         1.8200   -6.9900   -1.6150 c3        1 MOL     -0.299090
    118 O18        -0.5920   -6.5650   -1.4350 oh        1 MOL     -0.648025
    119 H53         2.6800   -4.0450   -1.0050 hn        1 MOL      0.204057
    120 H54         0.7690   -4.8530   -3.2000 h1        1 MOL      0.082550
    121 H55         0.6810   -5.7160   -0.2440 h1        1 MOL      0.001853
    122 H56        -0.4500   -7.5000   -1.5870 ho        1 MOL      0.418705
    123 H57         1.6460   -7.4980   -2.5590 hc        1 MOL      0.075101
    124 H58         2.7710   -6.4630   -1.5110 hc        1 MOL      0.075101
    125 H59         1.7840   -7.7730   -0.8610 hc        1 MOL      0.075101
    126 N11        -0.7200   -2.9390   -2.7410 n         1 MOL     -0.356271
    127 C39        -1.7740   -1.8740   -2.5640 c3        1 MOL     -0.172930
    128 C40        -3.1310   -2.3120   -2.8530 c         1 MOL      0.674082
    129 O19        -3.3780   -3.1600   -3.7380 o         1 MOL     -0.545341
    130 C41        -1.4470   -0.5590   -3.3820 c3        1 MOL      0.303693
    131 C42        -0.1030   -0.6030   -4.1220 c3        1 MOL     -0.310210
    132 O20        -1.2100    0.4900   -2.4420 oh        1 MOL     -0.619356
    133 H60        -0.4650   -3.2050   -3.6880 hn        1 MOL      0.272077
    134 H61        -1.6890   -1.5830   -1.5200 h1        1 MOL      0.111988
    135 H62        -2.2530   -0.2910   -4.0560 h1        1 MOL      0.035582
    136 H63        -0.4260    0.3540   -1.9120 ho        1 MOL      0.403291
    137 H64        -0.1580   -1.3330   -4.9330 hc        1 MOL      0.086075
    138 H65         0.2210    0.2590   -4.6940 hc        1 MOL      0.086075
    139 H66         0.6820   -1.0070   -3.4830 hc        1 MOL      0.086075
    140 N12        -4.0490   -1.8460   -1.9560 n         1 MOL     -0.447363
    141 C43        -5.4710   -1.9290   -2.1730 c3        1 MOL     -0.313457
    142 C44        -6.3420   -2.1160   -0.9940 c         1 MOL      0.692745
    143 O21        -7.5210   -2.3940   -1.1840 o         1 MOL     -0.585247
    144 C45        -5.9100   -0.8160   -3.1300 c3        1 MOL     -0.245392
    145 C46        -5.8280    0.6380   -2.5520 c3        1 MOL      0.267272
    146 C47        -6.4700    1.5710   -3.5590 c3        1 MOL     -0.067077
    147 C48        -5.8730    1.5100   -5.0020 c3        1 MOL      0.039708
    148 N13        -6.5740    2.4300   -5.9670 n4        1 MOL     -0.182998
    149 H67        -3.8150   -1.1850   -1.2320 hn        1 MOL      0.270224
    150 H68        -5.5730   -2.9220   -2.6050 h1        1 MOL      0.179926
    151 H69        -6.9930   -0.9460   -3.2560 hc        1 MOL      0.103695
    152 H70        -5.2830   -0.8860   -4.0190 hc        1 MOL      0.103695
    153 H71        -4.8530    1.0420   -2.2900 hc        1 MOL     -0.025501
    154 H72        -6.3620    0.7350   -1.6040 hc        1 MOL     -0.025501
    155 H73        -6.3930    2.5970   -3.2090 hc        1 MOL      0.025877
    156 H74        -7.4960    1.2130   -3.6670 hc        1 MOL      0.025877
    157 H75        -6.0480    0.5100   -5.4190 hx        1 MOL      0.059251
    158 H76        -4.8090    1.7210   -5.0510 hx        1 MOL      0.059251
    159 H77        -6.0450    2.5500   -6.8140 hn        1 MOL      0.241525
    160 H78        -7.4760    2.1980   -6.3550 hn        1 MOL      0.241525
    161 H79        -6.6470    3.4000   -5.6700 hn        1 MOL      0.241525
    162 N14        -5.7880   -1.8810    0.1950 n         1 MOL     -0.236863
    163 C49        -6.5910   -1.8090    1.4280 c3        1 MOL     -0.461146
    164 C50        -7.1430   -0.4180    1.5380 c         1 MOL      0.568437
    165 O22        -6.4020    0.5200    1.3240 o         1 MOL     -0.489031
    166 C51        -5.6890   -2.2640    2.6640 c3        1 MOL      0.149933
    167 C52        -5.2460   -3.7620    2.5160 c3        1 MOL      0.064897
    168 C53        -4.3980   -4.1210    3.7200 c         1 MOL      0.445452
    169 O23        -4.8540   -4.9590    4.5380 o         1 MOL     -0.635539
    170 O24        -3.3190   -3.5050    3.9100 o         1 MOL     -0.635539
    171 H80        -4.8060   -1.6600    0.2190 hn        1 MOL      0.271609
    172 H81        -7.4120   -2.4950    1.2140 h1        1 MOL      0.158875
    173 H82        -6.2120   -2.1480    3.6070 hc        1 MOL      0.039022
    174 H83        -4.8350   -1.6030    2.7480 hc        1 MOL      0.039022
    175 H84        -4.7190   -3.9310    1.5830 hc        1 MOL     -0.032140
    176 H85        -6.1580   -4.3520    2.4550 hc        1 MOL     -0.032140
    177 N15        -8.4180   -0.2460    1.8640 n         1 MOL     -0.343523
    178 C54        -8.9750    1.0670    2.0450 c3        1 MOL     -0.040438
    179 H86       -10.0430    1.0410    1.8270 h1        1 MOL      0.058286
    180 H87        -8.8210    1.3890    3.0750 h1        1 MOL      0.058286
    181 H88        -8.4850    1.7670    1.3680 h1        1 MOL      0.058286
    182 H89        -8.9950   -1.0290    2.1480 hn        1 MOL      0.281809
    183 Ca1        -0.8600   -2.8990    4.2010 Ca        1 MOL      1.807915
    184 O25        -2.2510   -0.9510    5.2590 oh        1 MOL     -0.988815
    185 H90        -1.7530   -0.1850    5.5210 ho        1 MOL      0.480971
    186 H91        -3.1750   -0.6670    5.3000 ho        1 MOL      0.480971
    187 O26        -1.5550   -3.9660    1.7440 oh        1 MOL     -0.988815
    188 H92        -2.3700   -4.4570    1.6270 ho        1 MOL      0.480971
    189 H93        -1.2400   -3.8290    0.8440 ho        1 MOL      0.480971
    190 O27        -1.6370   -3.6800    6.7770 oh        1 MOL     -0.988815
    191 H94        -2.5450   -3.5010    7.0200 ho        1 MOL      0.480971
    192 H95        -1.2500   -4.0800    7.5630 ho        1 MOL      0.480971
@<TRIPOS>BOND
     1    1    2 1   
     2    1    4 1   
     3    1    5 1   
     4    1    6 1   
     5    2    3 2   
     6    2    7 1   
     7    7    8 1   
     8    7   15 1   
     9    8    9 1   
    10    8   11 1   
    11    8   16 1   
    12    9   10 2   
    13    9   19 1   
    14   11   12 1   
    15   11   17 1   
    16   11   18 1   
    17   12   13 1   
    18   12   14 1   
    19   19   20 1   
    20   19   28 1   
    21   20   21 1   
    22   20   23 1   
    23   20   29 1   
    24   21   22 2   
    25   21   41 1   
    26   23   24 1   
    27   23   30 1   
    28   23   31 1   
    29   24   25 1   
    30   24   32 1   
    31   24   33 1   
    32   25   26 1   
    33   25   34 1   
    34   25   35 1   
    35   26   27 1   
    36   26   36 1   
    37   26   37 1   
    38   27   38 1   
    39   27   39 1   
    40   27   40 1   
    41   41   42 1   
    42   41   49 1   
    43   42   43 1   
    44   42   45 1   
    45   42   50 1   
    46   43   44 2   
    47   43   53 1   
    48   45   46 1   
    49   45   51 1   
    50   45   52 1   
    51   46   47 1   
    52   46   48 1   
    53   53   54 1   
    54   53   57 1   
    55   54   55 1   
    56   54   58 1   
    57   54   59 1   
    58   55   56 2   
    59   55   60 1   
    60   60   61 1   
    61   60   68 1   
    62   61   62 1   
    63   61   64 1   
    64   61   69 1   
    65   62   63 2   
    66   62   72 1   
    67   64   65 1   
    68   64   70 1   
    69   64   71 1   
    70   65   66 1   
    71   65   67 1   
    72   72   73 1   
    73   72   76 1   
    74   73   74 1   
    75   73   77 1   
    76   73   78 1   
    77   74   75 2   
    78   74   79 1   
    79   79   80 1   
    80   79   86 1   
    81   80   81 1   
    82   80   83 1   
    83   80   87 1   
    84   81   82 2   
    85   81   93 1   
    86   83   84 1   
    87   83   85 1   
    88   83   88 1   
    89   84   90 1   
    90   84   91 1   
    91   84   92 1   
    92   85   89 1   
    93   93   94 1   
    94   93  101 1   
    95   94   95 1   
    96   94   97 1   
    97   94  102 1   
    98   95   96 2   
    99   95  112 1   
   100   97   98 1   
   101   97   99 1   
   102   97  103 1   
   103   98  100 1   
   104   98  104 1   
   105   98  105 1   
   106   99  106 1   
   107   99  107 1   
   108   99  108 1   
   109  100  109 1   
   110  100  110 1   
   111  100  111 1   
   112  112  113 1   
   113  112  119 1   
   114  113  114 1   
   115  113  116 1   
   116  113  120 1   
   117  114  115 2   
   118  114  126 1   
   119  116  117 1   
   120  116  118 1   
   121  116  121 1   
   122  117  123 1   
   123  117  124 1   
   124  117  125 1   
   125  118  122 1   
   126  126  127 1   
   127  126  133 1   
   128  127  128 1   
   129  127  130 1   
   130  127  134 1   
   131  128  129 2   
   132  128  140 1   
   133  130  131 1   
   134  130  132 1   
   135  130  135 1   
   136  131  137 1   
   137  131  138 1   
   138  131  139 1   
   139  132  136 1   
   140  140  141 1   
   141  140  149 1   
   142  141  142 1   
   143  141  144 1   
   144  141  150 1   
   145  142  143 2   
   146  142  162 1   
   147  144  145 1   
   148  144  151 1   
   149  144  152 1   
   150  145  146 1   
   151  145  153 1   
   152  145  154 1   
   153  146  147 1   
   154  146  155 1   
   155  146  156 1   
   156  147  148 1   
   157  147  157 1   
   158  147  158 1   
   159  148  159 1   
   160  148  160 1   
   161  148  161 1   
   162  162  163 1   
   163  162  171 1   
   164  163  164 1   
   165  163  166 1   
   166  163  172 1   
   167  164  165 2   
   168  164  177 1   
   169  166  167 1   
   170  166  173 1   
   171  166  174 1   
   172  167  168 1   
   173  167  175 1   
   174  167  176 1   
   175  168  169 1   
   176  168  170 1   
   177  177  178 1   
   178  177  182 1   
   179  178  179 1   
   180  178  180 1   
   181  178  181 1   
   182  184  185 1   
   183  184  186 1   
   184  187  188 1   
   185  187  189 1   
   186  190  191 1   
   187  190  192 1   
@<TRIPOS>SUBSTRUCTURE
     1 MOL         1 TEMP              0 ****  ****    0 ROOT
