@<TRIPOS>MOLECULE
MOL
  178   175     1     0     0
SMALL
resp


@<TRIPOS>ATOM
      1 C1        -11.0790   -4.6720   -3.2000 c3        1 MOL     -0.270123
      2 C2         -9.5720   -4.6180   -2.7660 c         1 MOL      0.541830
      3 O1         -8.6420   -4.9830   -3.5150 o         1 MOL     -0.550962
      4 H1        -11.6990   -4.2410   -2.4130 hc        1 MOL      0.063920
      5 H2        -11.2140   -4.1020   -4.1200 hc        1 MOL      0.063920
      6 H3        -11.3730   -5.7080   -3.3660 hc        1 MOL      0.063920
      7 N1         -9.2500   -4.1530   -1.5560 n         1 MOL     -0.142814
      8 C3        -10.2020   -3.9220   -0.4200 c3        1 MOL     -0.367521
      9 C4         -9.7010   -4.2670    0.9910 c         1 MOL      0.517887
     10 O2        -10.4490   -4.1960    1.9950 o         1 MOL     -0.546754
     11 C5        -10.6430   -2.4530   -0.4100 c3        1 MOL     -0.013971
     12 C6         -9.4930   -1.5280   -0.3800 c         1 MOL      0.512527
     13 O3         -9.1880   -0.9460   -1.4530 o         1 MOL     -0.652866
     14 O4         -8.8660   -1.3500    0.7140 o         1 MOL     -0.652866
     15 H4         -8.2630   -4.2880   -1.3870 hn        1 MOL      0.190462
     16 H5        -11.1120   -4.5140   -0.5170 h1        1 MOL      0.159550
     17 H6        -11.2900   -2.1600    0.4210 hc        1 MOL      0.033683
     18 H7        -11.1760   -2.1620   -1.3080 hc        1 MOL      0.033683
     19 N2         -8.4060   -4.4900    1.0860 n         1 MOL     -0.351783
     20 C7         -7.7700   -4.8500    2.3960 c3        1 MOL      0.306146
     21 C8         -6.3180   -4.2690    2.4920 c         1 MOL      0.315734
     22 O5         -5.2950   -4.9680    2.7190 o         1 MOL     -0.473044
     23 C9         -7.8650   -6.4720    2.5080 c3        1 MOL     -0.247588
     24 H8         -7.7610   -4.3250    0.3190 hn        1 MOL      0.252198
     25 H9         -8.2860   -4.4320    3.2630 h1        1 MOL      0.016971
     26 H10        -8.9020   -6.6680    2.7600 hc        1 MOL      0.057376
     27 H11        -7.6320   -6.9700    1.5670 hc        1 MOL      0.057376
     28 H12        -7.2060   -6.9110    3.2550 hc        1 MOL      0.057376
     29 N3         -6.3370   -3.0100    1.9780 n         1 MOL     -0.280889
     30 C10        -5.1070   -2.3510    1.6440 c3        1 MOL      0.040609
     31 C11        -5.1510   -0.8190    1.6570 c         1 MOL      0.501054
     32 O6         -6.1990   -0.1600    1.7040 o         1 MOL     -0.552607
     33 C12        -4.7170   -2.7170    0.1760 c3        1 MOL     -0.392719
     34 C13        -5.8350   -2.4750   -0.8280 c         1 MOL      0.758890
     35 O7         -6.4660   -3.4230   -1.3760 o         1 MOL     -0.657063
     36 O8         -6.1100   -1.3220   -1.2550 o         1 MOL     -0.657063
     37 H13        -7.1960   -2.5950    1.6260 hn        1 MOL      0.169766
     38 H14        -4.3390   -2.7520    2.3100 h1        1 MOL      0.095828
     39 H15        -4.6430   -3.8120    0.1750 hc        1 MOL      0.122853
     40 H16        -3.7460   -2.2810   -0.0720 hc        1 MOL      0.122853
     41 N4         -3.9720   -0.1960    1.7250 n         1 MOL     -0.532181
     42 C14        -3.8870    1.2950    1.9060 c3        1 MOL      0.101004
     43 C15        -4.4310    2.1480    0.7580 c         1 MOL      0.549005
     44 O9         -4.9130    1.5840   -0.2440 o         1 MOL     -0.584985
     45 H17        -3.1130   -0.7270    1.7250 hn        1 MOL      0.362262
     46 H18        -2.8620    1.6020    2.1320 h1        1 MOL      0.067783
     47 H19        -4.3540    1.5460    2.8600 h1        1 MOL      0.067783
     48 N5         -4.4240    3.4690    0.9180 n         1 MOL     -0.772102
     49 C16        -4.6100    4.3860   -0.2680 c3        1 MOL      0.433260
     50 C17        -3.2810    5.0930   -0.6800 c         1 MOL      0.512063
     51 O10        -3.2770    6.3220   -0.9070 o         1 MOL     -0.542650
     52 C18        -5.6930    5.4480    0.0140 c3        1 MOL     -0.381753
     53 C19        -7.0580    4.7950   -0.1300 c         1 MOL      0.639001
     54 N6         -8.0980    5.4490    0.2780 n         1 MOL     -0.702508
     55 O11        -7.2160    3.6730   -0.6860 o         1 MOL     -0.557747
     56 H20        -4.2920    3.9310    1.8050 hn        1 MOL      0.379978
     57 H21        -4.8970    3.8510   -1.1620 h1        1 MOL      0.030426
     58 H22        -5.8200    6.0930   -0.8570 hc        1 MOL      0.125331
     59 H23        -5.6480    5.9840    0.9710 hc        1 MOL      0.125331
     60 H24        -7.9600    6.2580    0.8670 hn        1 MOL      0.329586
     61 H25        -9.0200    5.0640    0.1400 hn        1 MOL      0.329586
     62 N7         -2.1570    4.3910   -0.7960 n         1 MOL     -0.613713
     63 C20        -0.8470    4.9350   -0.9170 c3        1 MOL      0.150717
     64 C21        -0.3960    5.7620    0.2350 c         1 MOL      0.553800
     65 O12        -1.0760    5.8390    1.2950 o         1 MOL     -0.561409
     66 H26        -2.2360    3.3970   -0.6430 hn        1 MOL      0.384604
     67 H27        -0.7980    5.5260   -1.8390 h1        1 MOL      0.059801
     68 H28        -0.0800    4.1620   -1.0080 h1        1 MOL      0.059801
     69 N8          0.7820    6.4460    0.1970 n         1 MOL     -0.559416
     70 C22         1.8700    6.4160   -0.8740 c3        1 MOL      0.058462
     71 C23         3.0640    5.5710   -0.3600 c         1 MOL      0.413154
     72 O13         4.0440    5.4930   -1.0660 o         1 MOL     -0.472894
     73 C24         2.3020    7.8080   -1.3360 c3        1 MOL      0.344427
     74 C25         1.2650    8.7580   -1.9810 c3        1 MOL     -0.149190
     75 O14         2.9210    8.6030   -0.3760 oh        1 MOL     -0.644019
     76 H29         1.0460    6.9090    1.0540 hn        1 MOL      0.345376
     77 H30         1.5690    5.9470   -1.8080 h1        1 MOL      0.086020
     78 H31         3.0080    7.6680   -2.1630 h1        1 MOL     -0.009073
     79 H32         3.4940    9.2300   -0.8220 ho        1 MOL      0.405438
     80 H33         1.6220    9.7730   -2.1360 hc        1 MOL      0.026983
     81 H34         0.8250    8.4280   -2.9170 hc        1 MOL      0.026983
     82 H35         0.4120    8.9030   -1.3140 hc        1 MOL      0.026983
     83 N9          2.9970    4.8730    0.7570 n         1 MOL     -0.324943
     84 C26         3.7720    3.6480    1.0530 c3        1 MOL     -0.021173
     85 C27         3.5250    2.6350   -0.1040 c         1 MOL      0.619629
     86 O15         2.3770    2.4600   -0.5380 o         1 MOL     -0.611794
     87 C28         3.4440    3.0960    2.4990 c3        1 MOL      0.008150
     88 C29         4.2460    3.9600    3.5400 c3        1 MOL      0.307895
     89 C30         3.7690    1.6120    2.6760 c3        1 MOL     -0.167663
     90 C31         3.5180    4.0280    4.9050 c3        1 MOL     -0.294006
     91 H36         2.2180    4.9830    1.3900 hn        1 MOL      0.215638
     92 H37         4.8430    3.8660    0.9800 h1        1 MOL      0.016765
     93 H38         2.3940    3.2510    2.7220 hc        1 MOL      0.017244
     94 H39         4.3800    4.9650    3.1670 hc        1 MOL     -0.072453
     95 H40         5.2170    3.4830    3.6770 hc        1 MOL     -0.072453
     96 H41         3.5040    1.2260    3.6610 hc        1 MOL      0.057432
     97 H42         3.4890    0.9180    1.8930 hc        1 MOL      0.057432
     98 H43         4.8580    1.5250    2.6810 hc        1 MOL      0.057432
     99 H44         2.5690    4.5690    4.8870 hc        1 MOL      0.054308
    100 H45         3.4740    3.0130    5.2960 hc        1 MOL      0.054308
    101 H46         4.2020    4.6060    5.5080 hc        1 MOL      0.054308
    102 N10         4.4930    1.8190   -0.4650 n         1 MOL     -0.319727
    103 C32         5.8750    1.8450   -0.1280 c3        1 MOL      0.299292
    104 C33         6.5600    0.4590   -0.1370 c         1 MOL      0.389343
    105 O16         6.1820   -0.3870   -0.9660 o         1 MOL     -0.509048
    106 C34         6.6520    2.7830   -1.0230 c3        1 MOL     -0.315163
    107 C35         6.3740    2.6810   -2.5350 c         1 MOL      0.816301
    108 O17         5.2520    2.5810   -2.9940 o         1 MOL     -0.743215
    109 O18         7.2850    2.9110   -3.3080 o         1 MOL     -0.743215
    110 H47         4.2930    1.3160   -1.3150 hn        1 MOL      0.255326
    111 H48         6.0480    2.2490    0.8660 h1        1 MOL     -0.027906
    112 H49         7.6870    2.5130   -0.8510 hc        1 MOL      0.026348
    113 H50         6.5420    3.8110   -0.6740 hc        1 MOL      0.026348
    114 N11         7.6420    0.2560    0.6680 n         1 MOL     -0.464953
    115 C36         8.6950   -0.8250    0.4330 c3        1 MOL      0.351822
    116 C37         8.4470   -2.1170    1.2100 c         1 MOL     -0.003196
    117 O19         8.2740   -2.0390    2.4330 o         1 MOL     -0.440826
    118 C38        10.0710   -0.2900    0.8100 c3        1 MOL     -0.157274
    119 C39        11.1950   -1.1890    0.4720 ca        1 MOL      0.047440
    120 C40        11.8830   -1.8880    1.4650 ca        1 MOL     -0.121750
    121 C41        11.6860   -1.3440   -0.8200 ca        1 MOL     -0.121750
    122 C42        13.0380   -2.6920    1.2260 ca        1 MOL     -0.129485
    123 C43        12.8250   -2.2060   -1.0810 ca        1 MOL     -0.129485
    124 C44        13.4800   -2.8670   -0.0530 ca        1 MOL     -0.127743
    125 H51         7.9750    1.0040    1.2580 hn        1 MOL      0.272101
    126 H52         8.7910   -1.0220   -0.6320 h1        1 MOL      0.058706
    127 H53        10.1980    0.0340    1.8380 hc        1 MOL      0.060012
    128 H54        10.2260    0.6420    0.2610 hc        1 MOL      0.060012
    129 H55        11.6680   -1.5290    2.4710 ha        1 MOL      0.107053
    130 H56        11.1610   -0.9060   -1.6520 ha        1 MOL      0.107053
    131 H57        13.4250   -3.1790    2.1030 ha        1 MOL      0.107103
    132 H58        13.1530   -2.2800   -2.1090 ha        1 MOL      0.107103
    133 H59        14.1920   -3.6440   -0.3160 ha        1 MOL      0.107438
    134 N12         8.5480   -3.3400    0.6070 n         1 MOL      0.348647
    135 C45         8.6410   -3.6070   -0.8460 c3        1 MOL     -0.169547
    136 C46         7.2600   -3.7870   -1.5180 c         1 MOL      0.575859
    137 O20         7.1810   -3.6780   -2.7800 o         1 MOL     -0.583433
    138 C47         9.5170   -4.8640   -0.8170 c3        1 MOL     -0.124370
    139 C48         9.0530   -5.6730    0.3730 c3        1 MOL     -0.040191
    140 C49         8.9660   -4.5250    1.3540 c3        1 MOL      0.000103
    141 H60         9.1000   -2.8440   -1.4770 h1        1 MOL      0.067154
    142 H61         9.2740   -5.4800   -1.6870 hc        1 MOL      0.048272
    143 H62        10.5710   -4.6100   -0.7590 hc        1 MOL      0.048272
    144 H63         8.0780   -6.1090    0.1310 hc        1 MOL      0.024141
    145 H64         9.7810   -6.4520    0.5790 hc        1 MOL      0.024141
    146 H65         8.2630   -4.7330    2.1680 h1        1 MOL      0.017520
    147 H66         9.9470   -4.4160    1.8160 h1        1 MOL      0.017520
    148 N13         6.1590   -4.0140   -0.7660 n         1 MOL     -0.325826
    149 C50         4.7400   -3.8830   -1.2160 c3        1 MOL      0.028412
    150 C51         4.1950   -5.0720   -2.0770 c         1 MOL      0.420397
    151 O21         3.8570   -6.1030   -1.5340 o         1 MOL     -0.557615
    152 C52         3.8780   -3.7040    0.0190 c3        1 MOL      0.039927
    153 C53         4.1800   -2.4700    0.8520 c3        1 MOL     -0.017086
    154 C54         3.4270   -2.4880    2.2390 c         1 MOL      0.670266
    155 O22         4.0890   -2.9340    3.2080 o         1 MOL     -0.717003
    156 O23         2.2120   -2.1990    2.2970 o         1 MOL     -0.717003
    157 H67         6.3430   -3.9160    0.2210 hn        1 MOL      0.190573
    158 H68         4.5970   -2.9790   -1.8090 h1        1 MOL      0.113916
    159 H69         3.9260   -4.5750    0.6770 hc        1 MOL      0.012430
    160 H70         2.8450   -3.6940   -0.3140 hc        1 MOL      0.012430
    161 H71         3.8050   -1.5760    0.3500 hc        1 MOL     -0.047076
    162 H72         5.2430   -2.4270    1.0770 hc        1 MOL     -0.047076
    163 N14         4.1110   -4.8770   -3.3700 n         1 MOL     -0.305978
    164 C55         4.3690   -3.6930   -4.2310 c3        1 MOL     -0.147242
    165 H73         5.2700   -3.8620   -4.8210 h1        1 MOL      0.085023
    166 H74         3.5210   -3.5370   -4.8990 h1        1 MOL      0.085023
    167 H75         4.5050   -2.8110   -3.6050 h1        1 MOL      0.085023
    168 H76         3.8510   -5.6530   -3.9590 hn        1 MOL      0.251066
    169 Ca1        -7.5180    0.7180   -0.3670 Ca        1 MOL      1.794034
    170 O24        -9.9060    1.8420   -0.8480 oh        1 MOL     -0.899197
    171 H77       -10.7580    1.4580   -0.6550 ho        1 MOL      0.429947
    172 H78       -10.0990    2.5890   -1.4040 ho        1 MOL      0.429947
    173 O25        -7.4170    1.3400   -3.0580 oh        1 MOL     -0.899197
    174 H79        -6.6090    1.4680   -3.5500 ho        1 MOL      0.429947
    175 H80        -8.1080    1.7130   -3.6060 ho        1 MOL      0.429947
    176 O26        -8.0840    1.9180    2.0170 oh        1 MOL     -0.899197
    177 H81        -8.6130    2.7000    2.1880 ho        1 MOL      0.429947
    178 H82        -7.8590    1.6000    2.8930 ho        1 MOL      0.429947
@<TRIPOS>BOND
     1    1    2 1   
     2    1    4 1   
     3    1    5 1   
     4    1    6 1   
     5    2    3 2   
     6    2    7 1   
     7    7    8 1   
     8    7   15 1   
     9    8    9 1   
    10    8   11 1   
    11    8   16 1   
    12    9   10 2   
    13    9   19 1   
    14   11   12 1   
    15   11   17 1   
    16   11   18 1   
    17   12   13 1   
    18   12   14 1   
    19   19   20 1   
    20   19   24 1   
    21   20   21 1   
    22   20   23 1   
    23   20   25 1   
    24   21   22 2   
    25   21   29 1   
    26   23   26 1   
    27   23   27 1   
    28   23   28 1   
    29   29   30 1   
    30   29   37 1   
    31   30   31 1   
    32   30   33 1   
    33   30   38 1   
    34   31   32 2   
    35   31   41 1   
    36   33   34 1   
    37   33   39 1   
    38   33   40 1   
    39   34   35 1   
    40   34   36 1   
    41   41   42 1   
    42   41   45 1   
    43   42   43 1   
    44   42   46 1   
    45   42   47 1   
    46   43   44 2   
    47   43   48 1   
    48   48   49 1   
    49   48   56 1   
    50   49   50 1   
    51   49   52 1   
    52   49   57 1   
    53   50   51 2   
    54   50   62 1   
    55   52   53 1   
    56   52   58 1   
    57   52   59 1   
    58   53   54 1   
    59   53   55 2   
    60   54   60 1   
    61   54   61 1   
    62   62   63 1   
    63   62   66 1   
    64   63   64 1   
    65   63   67 1   
    66   63   68 1   
    67   64   65 2   
    68   64   69 1   
    69   69   70 1   
    70   69   76 1   
    71   70   71 1   
    72   70   73 1   
    73   70   77 1   
    74   71   72 2   
    75   71   83 1   
    76   73   74 1   
    77   73   75 1   
    78   73   78 1   
    79   74   80 1   
    80   74   81 1   
    81   74   82 1   
    82   75   79 1   
    83   83   84 1   
    84   83   91 1   
    85   84   85 1   
    86   84   87 1   
    87   84   92 1   
    88   85   86 2   
    89   85  102 1   
    90   87   88 1   
    91   87   89 1   
    92   87   93 1   
    93   88   90 1   
    94   88   94 1   
    95   88   95 1   
    96   89   96 1   
    97   89   97 1   
    98   89   98 1   
    99   90   99 1   
   100   90  100 1   
   101   90  101 1   
   102  102  103 1   
   103  102  110 1   
   104  103  104 1   
   105  103  106 1   
   106  103  111 1   
   107  104  105 2   
   108  104  114 1   
   109  106  107 1   
   110  106  112 1   
   111  106  113 1   
   112  107  108 1   
   113  107  109 1   
   114  114  115 1   
   115  114  125 1   
   116  115  116 1   
   117  115  118 1   
   118  115  126 1   
   119  116  117 2   
   120  116  134 1   
   121  118  119 1   
   122  118  127 1   
   123  118  128 1   
   124  119  120 ar  
   125  119  121 ar  
   126  120  122 ar  
   127  120  129 1   
   128  121  123 ar  
   129  121  130 1   
   130  122  124 ar  
   131  122  131 1   
   132  123  124 ar  
   133  123  132 1   
   134  124  133 1   
   135  134  135 1   
   136  134  140 1   
   137  135  136 1   
   138  135  138 1   
   139  135  141 1   
   140  136  137 2   
   141  136  148 1   
   142  138  139 1   
   143  138  142 1   
   144  138  143 1   
   145  139  140 1   
   146  139  144 1   
   147  139  145 1   
   148  140  146 1   
   149  140  147 1   
   150  148  149 1   
   151  148  157 1   
   152  149  150 1   
   153  149  152 1   
   154  149  158 1   
   155  150  151 2   
   156  150  163 1   
   157  152  153 1   
   158  152  159 1   
   159  152  160 1   
   160  153  154 1   
   161  153  161 1   
   162  153  162 1   
   163  154  155 1   
   164  154  156 1   
   165  163  164 1   
   166  163  168 1   
   167  164  165 1   
   168  164  166 1   
   169  164  167 1   
   170  170  171 1   
   171  170  172 1   
   172  173  174 1   
   173  173  175 1   
   174  176  177 1   
   175  176  178 1   
@<TRIPOS>SUBSTRUCTURE
     1 MOL         1 TEMP              0 ****  ****    0 ROOT
