@<TRIPOS>MOLECULE
MOL
  184   179     1     0     0
SMALL
resp


@<TRIPOS>ATOM
      1 C1          7.4520    7.3020   -1.8440 c3        1 MOL     -0.457879
      2 C2          7.1130    6.4260   -0.5330 c         1 MOL      0.704974
      3 O1          6.3220    6.8610    0.3260 o         1 MOL     -0.590165
      4 H1          8.5330    7.3890   -1.9520 hc        1 MOL      0.123782
      5 H2          7.0380    6.8130   -2.7250 hc        1 MOL      0.123782
      6 H3          7.0160    8.2960   -1.7400 hc        1 MOL      0.123782
      7 N1          7.6950    5.2390   -0.4210 n         1 MOL     -0.507347
      8 C3          8.5710    4.4070   -1.2860 c3        1 MOL      0.082515
      9 C4          9.5570    3.5090   -0.5110 c         1 MOL      0.452359
     10 O2         10.6270    3.3260   -1.0680 o         1 MOL     -0.543466
     11 C5          7.7910    3.5060   -2.2050 c3        1 MOL     -0.139760
     12 C6          6.8750    2.5510   -1.4650 c         1 MOL      0.601429
     13 O3          5.6430    2.8160   -1.4810 o         1 MOL     -0.660329
     14 O4          7.2850    1.6140   -0.7020 o         1 MOL     -0.660329
     15 H4          7.5120    4.9010    0.5100 hn        1 MOL      0.229121
     16 H5          9.1930    5.0840   -1.8730 h1        1 MOL      0.081268
     17 H6          8.5350    2.9920   -2.8220 hc        1 MOL      0.066621
     18 H7          7.2580    4.1590   -2.9020 hc        1 MOL      0.066621
     19 N2          9.2990    3.0940    0.7220 n         1 MOL     -0.379592
     20 C7         10.2890    2.4400    1.5890 c3        1 MOL      0.276027
     21 C8         10.4040    0.9300    1.5790 c         1 MOL      0.427667
     22 O5         11.3930    0.4200    2.1190 o         1 MOL     -0.538800
     23 C9         10.0390    3.0760    2.9730 c3        1 MOL     -0.136666
     24 H8          8.3500    3.2280    1.0440 hn        1 MOL      0.288722
     25 H9         11.2930    2.7230    1.2590 h1        1 MOL      0.046409
     26 H10        10.9230    2.8370    3.5430 hc        1 MOL      0.020157
     27 H11         9.8590    4.1250    2.7740 hc        1 MOL      0.020157
     28 H12         9.0700    2.6970    3.3230 hc        1 MOL      0.020157
     29 N3          9.4240    0.2580    0.8870 n         1 MOL     -0.193419
     30 C10         9.4690   -1.1390    0.6100 c3        1 MOL      0.029179
     31 C11         9.2600   -1.5670   -0.8300 c         1 MOL      0.383857
     32 O6          9.7410   -2.6050   -1.2440 o         1 MOL     -0.510213
     33 C12         8.3350   -1.7360    1.5200 c3        1 MOL     -0.293135
     34 C13         6.8990   -1.0440    1.3190 c         1 MOL      0.832279
     35 O7          6.5080   -0.0530    1.9690 o         1 MOL     -0.784892
     36 O8          6.2300   -1.4370    0.3320 o         1 MOL     -0.784892
     37 H13         8.7510    0.8040    0.3810 hn        1 MOL      0.020224
     38 H14        10.3600   -1.5940    1.0580 h1        1 MOL      0.118550
     39 H15         8.6670   -1.5950    2.5560 hc        1 MOL      0.083781
     40 H16         8.2510   -2.8120    1.3560 hc        1 MOL      0.083781
     41 N4          8.5810   -0.7650   -1.7060 n         1 MOL     -0.162211
     42 C14         8.2640   -1.1030   -3.1200 c3        1 MOL     -0.359697
     43 C15         7.3480   -2.2790   -3.3670 c         1 MOL      0.694162
     44 O9          7.3350   -2.7410   -4.5410 o         1 MOL     -0.607996
     45 H17         8.2440    0.1180   -1.3510 hn        1 MOL      0.233694
     46 H18         9.2340   -1.3490   -3.5400 h1        1 MOL      0.143572
     47 H19         7.8590   -0.2320   -3.6470 h1        1 MOL      0.143572
     48 N5          6.6190   -2.6810   -2.3760 n         1 MOL     -0.574598
     49 C16         6.1070   -4.0170   -2.2160 c3        1 MOL      0.285070
     50 C17         4.7520   -4.0710   -1.4710 c         1 MOL      0.219649
     51 O10         4.0560   -5.0920   -1.5820 o         1 MOL     -0.468488
     52 C18         7.1370   -4.9110   -1.5000 c3        1 MOL     -0.166064
     53 C19         6.8470   -6.4200   -1.5210 c         1 MOL      0.486250
     54 N6          7.2880   -7.1090   -2.5410 n         1 MOL     -0.666126
     55 O11         6.1980   -6.9890   -0.5770 o         1 MOL     -0.511329
     56 H20         6.6070   -2.0140   -1.6100 hn        1 MOL      0.304990
     57 H21         5.9710   -4.5070   -3.1870 h1        1 MOL      0.044176
     58 H22         7.3370   -4.6620   -0.4590 hc        1 MOL      0.075399
     59 H23         8.0630   -4.7610   -2.0520 hc        1 MOL      0.075399
     60 H24         7.8530   -6.6290   -3.2200 hn        1 MOL      0.330991
     61 H25         7.4160   -8.1120   -2.4510 hn        1 MOL      0.330991
     62 N7          4.3430   -3.0100   -0.7990 n         1 MOL     -0.064829
     63 C20         2.9960   -3.0280   -0.2210 c3        1 MOL     -0.274663
     64 C21         2.6700   -1.8260    0.7400 c         1 MOL      0.672113
     65 O12         3.3480   -0.8130    0.6820 o         1 MOL     -0.662091
     66 H26         4.8990   -2.1870   -0.6340 hn        1 MOL      0.272157
     67 H27         2.7820   -3.9860    0.2530 h1        1 MOL      0.140463
     68 H28         2.2970   -3.0350   -1.0510 h1        1 MOL      0.140463
     69 N8          1.6530   -1.8630    1.5910 n         1 MOL     -0.603809
     70 C22         0.6680   -3.0200    1.7760 c3        1 MOL      0.098056
     71 C23        -0.7750   -2.5420    1.7100 c         1 MOL      0.472776
     72 O13        -1.6410   -3.3930    1.6130 o         1 MOL     -0.530483
     73 C24         0.8920   -3.6170    3.1870 c3        1 MOL      0.300639
     74 C25         0.2090   -4.9600    3.4880 c3        1 MOL     -0.429028
     75 O14         2.3400   -3.7900    3.4100 oh        1 MOL     -0.602043
     76 H29         1.5430   -0.9680    2.0430 hn        1 MOL      0.338434
     77 H30         0.8300   -3.7600    0.9910 h1        1 MOL      0.090672
     78 H31         0.4670   -2.8560    3.8370 h1        1 MOL      0.012362
     79 H32         2.7530   -2.9320    3.4890 ho        1 MOL      0.377682
     80 H33         0.6280   -5.4240    4.3810 hc        1 MOL      0.137195
     81 H34        -0.8590   -4.8990    3.6460 hc        1 MOL      0.137195
     82 H35         0.5250   -5.6640    2.7000 hc        1 MOL      0.137195
     83 N9         -1.0910   -1.2540    1.7050 n         1 MOL     -0.401450
     84 C26        -2.3980   -0.6280    1.5260 c3        1 MOL      0.137718
     85 C27        -2.7380   -0.2190    0.0450 c         1 MOL      0.568980
     86 O15        -1.7880    0.2520   -0.6330 o         1 MOL     -0.595011
     87 C28        -2.4550    0.4690    2.5530 c3        1 MOL     -0.016833
     88 C29        -2.1270    0.0900    4.0010 c3        1 MOL      0.142600
     89 C30        -3.8950    1.0380    2.4640 c3        1 MOL     -0.474252
     90 C31        -2.7720   -1.2230    4.4620 c3        1 MOL     -0.136622
     91 H36        -0.3160   -0.6080    1.7900 hn        1 MOL      0.203198
     92 H37        -3.1550   -1.3380    1.8530 h1        1 MOL      0.093323
     93 H38        -1.7270    1.2210    2.2430 hc        1 MOL      0.006186
     94 H39        -2.3200    0.9580    4.6250 hc        1 MOL     -0.054828
     95 H40        -1.0530   -0.1090    4.0540 hc        1 MOL     -0.054828
     96 H41        -4.6150    0.2480    2.6700 hc        1 MOL      0.177040
     97 H42        -3.9300    1.8280    3.2140 hc        1 MOL      0.177040
     98 H43        -4.1520    1.5760    1.5450 hc        1 MOL      0.177040
     99 H44        -2.1240   -2.0320    4.1230 hc        1 MOL      0.040612
    100 H45        -2.7710   -1.2530    5.5530 hc        1 MOL      0.040612
    101 H46        -3.8150   -1.1710    4.1190 hc        1 MOL      0.040612
    102 N10        -3.9130   -0.3910   -0.5840 n         1 MOL     -0.648121
    103 C32        -5.0610   -1.2320   -0.0760 c3        1 MOL      0.527474
    104 C33        -6.4340   -0.7150   -0.7240 c         1 MOL      0.372940
    105 O16        -6.4130    0.0540   -1.7040 o         1 MOL     -0.521590
    106 C34        -4.8450   -2.7380   -0.3730 c3        1 MOL     -0.403210
    107 C35        -5.7600   -3.6440    0.5100 c         1 MOL      0.708764
    108 O17        -6.5390   -3.1960    1.3940 o         1 MOL     -0.687020
    109 O18        -5.7530   -4.8880    0.3780 o         1 MOL     -0.687020
    110 H47        -3.9170   -0.1550   -1.5600 hn        1 MOL      0.332097
    111 H48        -5.1730   -1.1180    1.0050 h1        1 MOL     -0.065050
    112 H49        -3.7840   -2.9660   -0.2390 hc        1 MOL      0.079947
    113 H50        -4.9090   -2.8680   -1.4510 hc        1 MOL      0.079947
    114 N11        -7.5710   -1.1550   -0.1100 n         1 MOL     -0.522273
    115 C36        -8.9280   -1.0480   -0.5100 c3        1 MOL      0.610686
    116 C37        -9.7730   -0.2540    0.4700 c         1 MOL      0.082564
    117 O19        -9.6810   -0.4930    1.7100 o         1 MOL     -0.488786
    118 C38        -9.5160   -2.4120   -0.7240 c3        1 MOL     -0.074601
    119 C39       -11.0690   -2.4160   -1.0150 ca        1 MOL      0.020291
    120 C40       -11.6990   -2.4430   -2.2770 ca        1 MOL     -0.139455
    121 C41       -11.9180   -2.5180    0.0950 ca        1 MOL     -0.139455
    122 C42       -13.0920   -2.4620   -2.4760 ca        1 MOL     -0.091196
    123 C43       -13.3280   -2.6150   -0.0810 ca        1 MOL     -0.091196
    124 C44       -13.9310   -2.5530   -1.3640 ca        1 MOL     -0.160067
    125 H51        -7.4910   -1.6340    0.7860 hn        1 MOL      0.257610
    126 H52        -8.9990   -0.5740   -1.4920 h1        1 MOL     -0.049228
    127 H53        -9.3190   -3.0610    0.1210 hc        1 MOL      0.033268
    128 H54        -9.0090   -2.8770   -1.5610 hc        1 MOL      0.033268
    129 H55       -11.0050   -2.2540   -3.0720 ha        1 MOL      0.113247
    130 H56       -11.5090   -2.5150    1.0940 ha        1 MOL      0.113247
    131 H57       -13.3800   -2.5260   -3.5100 ha        1 MOL      0.094509
    132 H58       -13.8790   -2.6290    0.8510 ha        1 MOL      0.094509
    133 H59       -14.9950   -2.6400   -1.5050 ha        1 MOL      0.105942
    134 N12       -10.6270    0.6140    0.0250 n         1 MOL      0.235677
    135 C45       -10.8630    1.0640   -1.3780 c3        1 MOL      0.255929
    136 C46        -9.7020    1.9340   -1.8230 c         1 MOL      0.335638
    137 O20        -9.2090    1.8230   -2.9300 o         1 MOL     -0.513038
    138 C47       -12.1430    1.8250   -1.4200 c3        1 MOL     -0.091174
    139 C48       -12.8900    1.1970   -0.2810 c3        1 MOL     -0.018761
    140 C49       -11.8280    0.9520    0.7800 c3        1 MOL     -0.134507
    141 H60       -10.9060    0.1450   -1.9550 h1        1 MOL     -0.097808
    142 H61       -12.0260    2.8940   -1.2300 hc        1 MOL      0.031432
    143 H62       -12.6830    1.7090   -2.3510 hc        1 MOL      0.031432
    144 H63       -13.6850    1.8440    0.1090 hc        1 MOL      0.009855
    145 H64       -13.3720    0.2750   -0.5870 hc        1 MOL      0.009855
    146 H65       -11.6320    1.8310    1.3930 h1        1 MOL      0.060846
    147 H66       -12.1630    0.0860    1.3580 h1        1 MOL      0.060846
    148 N13        -9.1730    2.7530   -0.8700 n         1 MOL     -0.509063
    149 C50        -7.9110    3.4270   -0.9820 c3        1 MOL      0.387131
    150 C51        -7.9740    4.7150   -1.8380 c         1 MOL      0.356580
    151 O21        -8.3120    5.8200   -1.4740 o         1 MOL     -0.530821
    152 C52        -7.4940    3.8760    0.4390 c3        1 MOL     -0.092617
    153 C53        -7.4880    2.7820    1.5370 c3        1 MOL      0.012293
    154 C54        -7.3930    3.4110    2.9380 c         1 MOL      0.631416
    155 O22        -6.8580    4.5370    3.0560 o         1 MOL     -0.686838
    156 O23        -7.7460    2.7840    4.0080 o         1 MOL     -0.686838
    157 H67        -9.5590    2.7730    0.0670 hn        1 MOL      0.279212
    158 H68        -7.1730    2.6740   -1.2570 h1        1 MOL     -0.028779
    159 H69        -8.1710    4.7100    0.6330 hc        1 MOL      0.014751
    160 H70        -6.4840    4.2730    0.3640 hc        1 MOL      0.014751
    161 H71        -6.5750    2.1950    1.4730 hc        1 MOL     -0.058678
    162 H72        -8.3930    2.1720    1.5040 hc        1 MOL     -0.058678
    163 N14        -7.6740    4.6110   -3.1650 n         1 MOL     -0.293803
    164 C55        -6.9880    3.5420   -3.8720 c3        1 MOL     -0.070158
    165 H73        -5.9110    3.6720   -3.7680 h1        1 MOL      0.048186
    166 H74        -7.2800    2.5810   -3.4500 h1        1 MOL      0.048186
    167 H75        -7.2570    3.5730   -4.9280 h1        1 MOL      0.048186
    168 H76        -7.7520    5.4700   -3.6990 hn        1 MOL      0.236599
    169 Ca1         4.8680    1.2280    0.3150 Ca        1 MOL      1.763613
    170 O24         2.3250    1.6080   -1.0080 oh        1 MOL     -0.789300
    171 H77         2.1410    1.2300   -1.8690 ho        1 MOL      0.384429
    172 H78         1.4710    1.8780   -0.6760 ho        1 MOL      0.384429
    173 O25         3.9500    1.8860    2.7490 oh        1 MOL     -0.789300
    174 H79         4.1230    2.7800    3.0380 ho        1 MOL      0.384429
    175 H80         3.6370    1.4330    3.5310 ho        1 MOL      0.384429
    176 O26         6.4790    3.0080    1.8770 oh        1 MOL     -0.789300
    177 H81         6.9730    2.4150    2.4390 ho        1 MOL      0.384429
    178 H82         5.9860    3.5590    2.4820 ho        1 MOL      0.384429
    179 O27         4.4280    0.0090   -2.3360 oh        1 MOL     -0.789300
    180 H83         3.9740   -0.6030   -2.9200 ho        1 MOL      0.384429
    181 H84         4.2540    0.8680   -2.7190 ho        1 MOL      0.384429
    182 O28         3.8980    3.6720    0.4150 oh        1 MOL     -0.789300
    183 H85         4.3060    4.3830   -0.0820 ho        1 MOL      0.384429
    184 H86         3.2730    4.1070    0.9940 ho        1 MOL      0.384429
@<TRIPOS>BOND
     1    1    2 1   
     2    1    4 1   
     3    1    5 1   
     4    1    6 1   
     5    2    3 2   
     6    2    7 1   
     7    7    8 1   
     8    7   15 1   
     9    8    9 1   
    10    8   11 1   
    11    8   16 1   
    12    9   10 2   
    13    9   19 1   
    14   11   12 1   
    15   11   17 1   
    16   11   18 1   
    17   12   13 1   
    18   12   14 1   
    19   19   20 1   
    20   19   24 1   
    21   20   21 1   
    22   20   23 1   
    23   20   25 1   
    24   21   22 2   
    25   21   29 1   
    26   23   26 1   
    27   23   27 1   
    28   23   28 1   
    29   29   30 1   
    30   29   37 1   
    31   30   31 1   
    32   30   33 1   
    33   30   38 1   
    34   31   32 2   
    35   31   41 1   
    36   33   34 1   
    37   33   39 1   
    38   33   40 1   
    39   34   35 1   
    40   34   36 1   
    41   41   42 1   
    42   41   45 1   
    43   42   43 1   
    44   42   46 1   
    45   42   47 1   
    46   43   44 2   
    47   43   48 1   
    48   48   49 1   
    49   48   56 1   
    50   49   50 1   
    51   49   52 1   
    52   49   57 1   
    53   50   51 2   
    54   50   62 1   
    55   52   53 1   
    56   52   58 1   
    57   52   59 1   
    58   53   54 1   
    59   53   55 2   
    60   54   60 1   
    61   54   61 1   
    62   62   63 1   
    63   62   66 1   
    64   63   64 1   
    65   63   67 1   
    66   63   68 1   
    67   64   65 2   
    68   64   69 1   
    69   69   70 1   
    70   69   76 1   
    71   70   71 1   
    72   70   73 1   
    73   70   77 1   
    74   71   72 2   
    75   71   83 1   
    76   73   74 1   
    77   73   75 1   
    78   73   78 1   
    79   74   80 1   
    80   74   81 1   
    81   74   82 1   
    82   75   79 1   
    83   83   84 1   
    84   83   91 1   
    85   84   85 1   
    86   84   87 1   
    87   84   92 1   
    88   85   86 2   
    89   85  102 1   
    90   87   88 1   
    91   87   89 1   
    92   87   93 1   
    93   88   90 1   
    94   88   94 1   
    95   88   95 1   
    96   89   96 1   
    97   89   97 1   
    98   89   98 1   
    99   90   99 1   
   100   90  100 1   
   101   90  101 1   
   102  102  103 1   
   103  102  110 1   
   104  103  104 1   
   105  103  106 1   
   106  103  111 1   
   107  104  105 2   
   108  104  114 1   
   109  106  107 1   
   110  106  112 1   
   111  106  113 1   
   112  107  108 1   
   113  107  109 1   
   114  114  115 1   
   115  114  125 1   
   116  115  116 1   
   117  115  118 1   
   118  115  126 1   
   119  116  117 2   
   120  116  134 1   
   121  118  119 1   
   122  118  127 1   
   123  118  128 1   
   124  119  120 ar  
   125  119  121 ar  
   126  120  122 ar  
   127  120  129 1   
   128  121  123 ar  
   129  121  130 1   
   130  122  124 ar  
   131  122  131 1   
   132  123  124 ar  
   133  123  132 1   
   134  124  133 1   
   135  134  135 1   
   136  134  140 1   
   137  135  136 1   
   138  135  138 1   
   139  135  141 1   
   140  136  137 2   
   141  136  148 1   
   142  138  139 1   
   143  138  142 1   
   144  138  143 1   
   145  139  140 1   
   146  139  144 1   
   147  139  145 1   
   148  140  146 1   
   149  140  147 1   
   150  148  149 1   
   151  148  157 1   
   152  149  150 1   
   153  149  152 1   
   154  149  158 1   
   155  150  151 2   
   156  150  163 1   
   157  152  153 1   
   158  152  159 1   
   159  152  160 1   
   160  153  154 1   
   161  153  161 1   
   162  153  162 1   
   163  154  155 1   
   164  154  156 1   
   165  163  164 1   
   166  163  168 1   
   167  164  165 1   
   168  164  166 1   
   169  164  167 1   
   170  170  171 1   
   171  170  172 1   
   172  173  174 1   
   173  173  175 1   
   174  176  177 1   
   175  176  178 1   
   176  179  180 1   
   177  179  181 1   
   178  182  183 1   
   179  182  184 1   
@<TRIPOS>SUBSTRUCTURE
     1 MOL         1 TEMP              0 ****  ****    0 ROOT
