@<TRIPOS>MOLECULE
MOL
  194   186     1     0     0
SMALL
resp


@<TRIPOS>ATOM
      1 C1         -4.8060    1.8190   -3.3130 c3        1 MOL     -0.486414
      2 C2         -5.8550    1.7540   -2.1340 c         1 MOL      0.662635
      3 O1         -5.5060    1.3440   -1.0130 o         1 MOL     -0.479859
      4 H1         -4.2510    2.7550   -3.2520 hc        1 MOL      0.127519
      5 H2         -4.1150    0.9810   -3.2320 hc        1 MOL      0.127519
      6 H3         -5.3290    1.7680   -4.2680 hc        1 MOL      0.127519
      7 N1         -7.1410    2.0790   -2.3610 n         1 MOL     -0.515154
      8 C3         -8.1110    2.0770   -1.2960 c3        1 MOL      0.026253
      9 C4         -8.3870    0.7810   -0.5460 c         1 MOL      0.631292
     10 O2         -9.1130    0.7980    0.4390 o         1 MOL     -0.547898
     11 C5         -8.1900    3.3770   -0.4250 c3        1 MOL     -0.294006
     12 C6         -8.1240    4.6350   -1.3490 c         1 MOL      0.767705
     13 O3         -7.5650    5.7020   -0.9730 o         1 MOL     -0.662508
     14 O4         -8.7640    4.6320   -2.4200 o         1 MOL     -0.662508
     15 H4         -7.5410    2.1370   -3.2940 hn        1 MOL      0.311333
     16 H5         -9.0430    2.0630   -1.8640 h1        1 MOL      0.053401
     17 H6         -7.3250    3.2980    0.2380 hc        1 MOL      0.098526
     18 H7         -9.1250    3.5070    0.1120 hc        1 MOL      0.098526
     19 N2         -7.8620   -0.3440   -1.0140 n         1 MOL     -0.556147
     20 C7         -8.0830   -1.6620   -0.3770 c3        1 MOL      0.135680
     21 C8         -6.9250   -2.1180    0.4640 c         1 MOL      0.525695
     22 O5         -6.9570   -3.1720    1.1160 o         1 MOL     -0.562819
     23 C9         -8.6420   -2.7800   -1.2790 c3        1 MOL     -0.186141
     24 C10       -10.1670   -2.5790   -1.5640 c3        1 MOL      0.112996
     25 C11       -10.8490   -3.7060   -2.3540 c3        1 MOL     -0.088911
     26 C12       -10.3750   -3.5940   -3.7920 c3        1 MOL      0.044525
     27 N3        -11.4680   -3.9600   -4.6980 n4        1 MOL     -0.131427
     28 H8         -7.1690   -0.2920   -1.7600 hn        1 MOL      0.248707
     29 H9         -8.8740   -1.5100    0.3530 h1        1 MOL      0.097653
     30 H10        -8.6300   -3.6680   -0.6420 hc        1 MOL      0.048569
     31 H11        -8.1080   -2.8270   -2.2340 hc        1 MOL      0.048569
     32 H12       -10.4480   -1.5830   -1.9120 hc        1 MOL      0.010797
     33 H13       -10.6780   -2.5120   -0.6010 hc        1 MOL      0.010797
     34 H14       -11.8980   -3.4970   -2.1440 hc        1 MOL      0.049663
     35 H15       -10.6080   -4.6810   -1.9460 hc        1 MOL      0.049663
     36 H16        -9.5530   -4.3030   -3.8700 hx        1 MOL      0.057690
     37 H17        -9.9750   -2.6120   -4.0520 hx        1 MOL      0.057690
     38 H18       -12.1270   -3.2120   -4.8780 hn        1 MOL      0.212066
     39 H19       -11.0410   -4.2380   -5.5750 hn        1 MOL      0.212066
     40 H20       -11.9540   -4.8050   -4.4370 hn        1 MOL      0.212066
     41 N4         -5.8680   -1.2970    0.4810 n         1 MOL     -0.369565
     42 C13        -4.6300   -1.3340    1.2730 c3        1 MOL      0.014855
     43 C14        -4.6710   -0.7830    2.7070 c         1 MOL      0.553493
     44 O6         -5.5340    0.0420    3.0410 o         1 MOL     -0.496000
     45 C15        -3.4020   -0.7670    0.5520 c3        1 MOL     -0.204246
     46 C16        -2.0380   -1.2300    1.0050 c         1 MOL      0.713863
     47 O7         -1.4170   -0.6830    2.0160 o         1 MOL     -0.696985
     48 O8         -1.6680   -2.3300    0.4910 o         1 MOL     -0.696985
     49 H21        -6.1130   -0.4170    0.0430 hn        1 MOL      0.240470
     50 H22        -4.3740   -2.3820    1.4300 h1        1 MOL      0.029990
     51 H23        -3.4520    0.3110    0.4560 hc        1 MOL      0.061646
     52 H24        -3.4080   -1.0860   -0.4970 hc        1 MOL      0.061646
     53 N5         -3.8890   -1.3180    3.6190 n         1 MOL     -0.348987
     54 C17        -3.8620   -0.8270    5.0520 c3        1 MOL     -0.290889
     55 C18        -2.9600    0.3410    5.3370 c         1 MOL      0.566357
     56 O9         -3.0980    0.9830    6.3600 o         1 MOL     -0.555936
     57 H25        -3.2480   -2.0410    3.3300 hn        1 MOL      0.212130
     58 H26        -3.4540   -1.6990    5.5660 h1        1 MOL      0.150806
     59 H27        -4.8690   -0.4900    5.3240 h1        1 MOL      0.150806
     60 N6         -2.0380    0.6990    4.4290 n         1 MOL     -0.228759
     61 C19        -1.1360    1.8720    4.4030 c3        1 MOL      0.005960
     62 C20        -1.3110    2.6880    3.2290 c         1 MOL      0.492508
     63 O10        -1.4530    2.1880    2.1530 o         1 MOL     -0.443738
     64 C21         0.2810    1.2920    4.6420 c3        1 MOL     -0.198325
     65 C22         1.4000    2.3280    4.3960 c         1 MOL      0.694501
     66 N7          1.9800    2.2770    3.2840 n         1 MOL     -0.698079
     67 O11         1.7950    3.0980    5.2120 o         1 MOL     -0.605079
     68 H28        -1.9570    0.2340    3.5320 hn        1 MOL      0.181494
     69 H29        -1.4280    2.4600    5.2750 h1        1 MOL      0.071963
     70 H30         0.3480    0.5060    3.8940 hc        1 MOL      0.020726
     71 H31         0.4410    0.8640    5.6320 hc        1 MOL      0.020726
     72 H32         1.5560    1.5800    2.7000 hn        1 MOL      0.349957
     73 H33         2.7150    2.9250    3.0250 hn        1 MOL      0.349957
     74 N8         -1.3820    3.9890    3.3710 n         1 MOL     -0.355368
     75 C23        -1.6550    4.8930    2.2420 c3        1 MOL     -0.205939
     76 C24        -0.4390    5.0420    1.3660 c         1 MOL      0.585369
     77 O12         0.5200    5.7530    1.8170 o         1 MOL     -0.563458
     78 H34        -1.4300    4.4420    4.2790 hn        1 MOL      0.294925
     79 H35        -2.0140    5.8540    2.6090 h1        1 MOL      0.135282
     80 H36        -2.4530    4.4940    1.6090 h1        1 MOL      0.135282
     81 N9         -0.4300    4.4170    0.1850 n         1 MOL     -0.653204
     82 C25         0.7190    4.6120   -0.7670 c3        1 MOL      0.419184
     83 C26         1.3810    3.2320   -0.9430 c         1 MOL      0.463991
     84 O13         0.7120    2.1740   -0.9520 o         1 MOL     -0.480568
     85 C27         0.2180    5.1910   -2.0410 c3        1 MOL     -0.180397
     86 C28         1.1560    6.2240   -2.6000 ca        1 MOL      0.126520
     87 C29         1.3360    7.4010   -1.8130 ca        1 MOL     -0.247383
     88 C30         1.7070    6.1570   -3.8790 ca        1 MOL     -0.247383
     89 C31         2.2920    8.4410   -2.1660 ca        1 MOL     -0.164461
     90 C32         2.7790    7.0630   -4.1430 ca        1 MOL     -0.164461
     91 C33         3.0180    8.1840   -3.3480 ca        1 MOL      0.224500
     92 O14         4.0760    8.9460   -3.6550 oh        1 MOL     -0.426675
     93 H37        -1.1800    3.7580    0.0230 hn        1 MOL      0.323153
     94 H38         1.3640    5.3480   -0.2910 h1        1 MOL      0.000070
     95 H39        -0.6880    5.7790   -1.9120 hc        1 MOL      0.078689
     96 H40         0.0540    4.3700   -2.7450 hc        1 MOL      0.078689
     97 H41         0.7790    7.4540   -0.8920 ha        1 MOL      0.162853
     98 H42         1.4650    5.3240   -4.5200 ha        1 MOL      0.162853
     99 H43         2.5310    9.2590   -1.5090 ha        1 MOL      0.137460
    100 H44         3.3470    7.0320   -5.0610 ha        1 MOL      0.137460
    101 H45         4.5680    8.5950   -4.4080 ho        1 MOL      0.323931
    102 N10         2.6810    3.2830   -1.2250 n         1 MOL     -0.576131
    103 C34         3.4650    2.0780   -1.5660 c3        1 MOL      0.264239
    104 C35         4.4900    1.6730   -0.4980 c         1 MOL      0.490984
    105 O15         4.8890    0.5100   -0.3730 o         1 MOL     -0.569868
    106 C36         4.0000    2.2680   -2.9870 c3        1 MOL      0.260611
    107 C37         3.9510    0.9690   -3.6960 c3        1 MOL      0.085424
    108 C38         5.4630    2.7890   -3.0130 c3        1 MOL     -0.756334
    109 C39         3.9840    1.1660   -5.1860 c3        1 MOL     -0.146038
    110 H46         3.1220    4.1870   -1.2570 hn        1 MOL      0.234459
    111 H47         2.7590    1.2490   -1.6310 h1        1 MOL      0.001130
    112 H48         3.3870    2.9400   -3.5960 hc        1 MOL     -0.067287
    113 H49         2.9080    0.6450   -3.5840 hc        1 MOL      0.006581
    114 H50         4.5990    0.1910   -3.2940 hc        1 MOL      0.006581
    115 H51         6.1560    1.9670   -2.7970 hc        1 MOL      0.179031
    116 H52         5.8010    3.1530   -3.9840 hc        1 MOL      0.179031
    117 H53         5.5390    3.6160   -2.3050 hc        1 MOL      0.179031
    118 H54         3.1690    1.7380   -5.6300 hc        1 MOL      0.037199
    119 H55         4.9610    1.5740   -5.4660 hc        1 MOL      0.037199
    120 H56         4.0290    0.2250   -5.7210 hc        1 MOL      0.037199
    121 N11         5.0080    2.5730    0.3400 n         1 MOL     -0.321455
    122 C40         5.4440    2.1780    1.7060 c3        1 MOL     -0.035771
    123 C41         6.6890    1.3060    1.8300 c         1 MOL      0.468475
    124 O16         6.8670    0.5910    2.7580 o         1 MOL     -0.498816
    125 C42         5.4370    3.3060    2.6630 c3        1 MOL      0.019606
    126 O17         4.1450    3.9570    2.5920 oh        1 MOL     -0.619153
    127 H57         4.8200    3.5610    0.2180 hn        1 MOL      0.287328
    128 H58         4.6320    1.5310    2.0340 h1        1 MOL      0.117214
    129 H59         6.2250    3.9980    2.3540 h1        1 MOL      0.089368
    130 H60         5.7120    3.0540    3.6780 h1        1 MOL      0.089368
    131 H61         4.2100    4.6550    3.2400 ho        1 MOL      0.450792
    132 N12         7.5890    1.4350    0.8640 n         1 MOL     -0.383001
    133 C43         8.7810    0.5630    0.6350 c3        1 MOL      0.339469
    134 C44         8.5430   -0.9360    0.8750 c         1 MOL      0.468393
    135 O18         9.4550   -1.6500    1.2390 o         1 MOL     -0.535077
    136 C45         9.9940    1.1690    1.4400 c3        1 MOL     -0.330821
    137 H62         7.2590    1.9870    0.0890 hn        1 MOL      0.171700
    138 H63         9.0840    0.5280   -0.4110 h1        1 MOL      0.018038
    139 H64        10.1200    2.1930    1.0890 hc        1 MOL      0.090990
    140 H65         9.7170    1.1210    2.5020 hc        1 MOL      0.090990
    141 H66        10.9240    0.6170    1.4110 hc        1 MOL      0.090990
    142 N13         7.3650   -1.4870    0.6050 n         1 MOL     -0.635803
    143 C46         7.0400   -2.9030    0.8090 c3        1 MOL      0.863072
    144 C47         6.3860   -3.5360   -0.4590 c         1 MOL      0.255703
    145 O19         5.7660   -2.8380   -1.2650 o         1 MOL     -0.452381
    146 C48         6.2590   -3.1330    2.0970 c3        1 MOL     -0.276661
    147 H67         6.6150   -0.9920    0.1630 hn        1 MOL      0.249974
    148 H68         7.9610   -3.4580    0.9910 h1        1 MOL     -0.169057
    149 H69         6.2100   -4.2140    2.2730 hc        1 MOL      0.037028
    150 H70         6.8520   -2.6550    2.8840 hc        1 MOL      0.037028
    151 H71         5.2790   -2.6760    2.0960 hc        1 MOL      0.037028
    152 N14         6.6270   -4.8420   -0.6810 n         1 MOL     -0.435772
    153 C49         6.1880   -5.6960   -1.8320 c3        1 MOL     -0.120453
    154 C50         6.4250   -5.0640   -3.2380 c         1 MOL      0.468692
    155 O20         5.7340   -5.4590   -4.1740 o         1 MOL     -0.480748
    156 C51         4.7840   -6.3450   -1.5510 c3        1 MOL      0.186735
    157 C52         3.5570   -5.3870   -1.4740 c3        1 MOL      0.109121
    158 C53         2.1860   -6.0570   -1.5690 c         1 MOL      0.509672
    159 O21         1.8060   -6.6500   -2.5930 o         1 MOL     -0.659624
    160 O22         1.3510   -5.9230   -0.6290 o         1 MOL     -0.659624
    161 H72         7.1220   -5.3210    0.0540 hn        1 MOL      0.302794
    162 H73         6.9010   -6.5210   -1.8350 h1        1 MOL      0.087085
    163 H74         4.8360   -6.8240   -0.5670 hc        1 MOL     -0.049093
    164 H75         4.4600   -7.0920   -2.2720 hc        1 MOL     -0.049093
    165 H76         3.7160   -4.7410   -2.3380 hc        1 MOL     -0.059442
    166 H77         3.7230   -4.7810   -0.5810 hc        1 MOL     -0.059442
    167 N15         7.3780   -4.0990   -3.3720 n         1 MOL     -0.230291
    168 C54         7.6150   -3.3330   -4.6390 c3        1 MOL     -0.136778
    169 H78         6.6680   -2.9360   -5.0050 h1        1 MOL      0.086330
    170 H79         8.3010   -2.5090   -4.4430 h1        1 MOL      0.086330
    171 H80         8.0450   -3.9950   -5.3900 h1        1 MOL      0.086330
    172 H81         7.8940   -3.7880   -2.5500 hn        1 MOL      0.194079
    173 Ca1        -0.4620   -4.6010    0.7480 Ca        1 MOL      1.650002
    174 O23        -0.9860   -7.1720    1.1150 oh        1 MOL     -0.816910
    175 H82        -1.1710   -7.4030    0.2000 ho        1 MOL      0.413531
    176 H83        -0.5940   -7.9560    1.4890 ho        1 MOL      0.413531
    177 O24        -2.4140   -5.4470   -0.9660 oh        1 MOL     -0.816910
    178 H84        -2.4640   -5.1860   -1.8830 ho        1 MOL      0.413531
    179 H85        -3.2780   -5.8150   -0.7780 ho        1 MOL      0.413531
    180 O25         1.2140   -5.8490    2.6390 oh        1 MOL     -0.816910
    181 H86         1.4250   -5.0970    3.1940 ho        1 MOL      0.413531
    182 H87         2.0550   -6.2700    2.4740 ho        1 MOL      0.413531
    183 O26        -0.3710   -3.0200    2.9320 oh        1 MOL     -0.816910
    184 H88        -0.7970   -2.9760    3.7850 ho        1 MOL      0.413531
    185 H89        -0.5800   -2.1870    2.5180 ho        1 MOL      0.413531
    186 O27         1.6200   -2.8580    0.6270 oh        1 MOL     -0.816910
    187 H90         1.9990   -2.3240   -0.0710 ho        1 MOL      0.413531
    188 H91         1.7620   -2.3530    1.4290 ho        1 MOL      0.413531
    189 O28        -0.4010   -3.6140   -1.9040 oh        1 MOL     -0.816910
    190 H92        -0.0540   -2.7970   -2.2490 ho        1 MOL      0.413531
    191 H93        -0.4420   -4.2020   -2.6500 ho        1 MOL      0.413531
    192 O29        -2.4620   -5.1220    2.5490 oh        1 MOL     -0.816910
    193 H94        -3.2070   -5.7230    2.4860 ho        1 MOL      0.413531
    194 H95        -2.3090   -5.0350    3.4960 ho        1 MOL      0.413531
@<TRIPOS>BOND
     1    1    2 1   
     2    1    4 1   
     3    1    5 1   
     4    1    6 1   
     5    2    3 2   
     6    2    7 1   
     7    7    8 1   
     8    7   15 1   
     9    8    9 1   
    10    8   11 1   
    11    8   16 1   
    12    9   10 2   
    13    9   19 1   
    14   11   12 1   
    15   11   17 1   
    16   11   18 1   
    17   12   13 1   
    18   12   14 1   
    19   19   20 1   
    20   19   28 1   
    21   20   21 1   
    22   20   23 1   
    23   20   29 1   
    24   21   22 2   
    25   21   41 1   
    26   23   24 1   
    27   23   30 1   
    28   23   31 1   
    29   24   25 1   
    30   24   32 1   
    31   24   33 1   
    32   25   26 1   
    33   25   34 1   
    34   25   35 1   
    35   26   27 1   
    36   26   36 1   
    37   26   37 1   
    38   27   38 1   
    39   27   39 1   
    40   27   40 1   
    41   41   42 1   
    42   41   49 1   
    43   42   43 1   
    44   42   45 1   
    45   42   50 1   
    46   43   44 2   
    47   43   53 1   
    48   45   46 1   
    49   45   51 1   
    50   45   52 1   
    51   46   47 1   
    52   46   48 1   
    53   53   54 1   
    54   53   57 1   
    55   54   55 1   
    56   54   58 1   
    57   54   59 1   
    58   55   56 2   
    59   55   60 1   
    60   60   61 1   
    61   60   68 1   
    62   61   62 1   
    63   61   64 1   
    64   61   69 1   
    65   62   63 2   
    66   62   74 1   
    67   64   65 1   
    68   64   70 1   
    69   64   71 1   
    70   65   66 1   
    71   65   67 2   
    72   66   72 1   
    73   66   73 1   
    74   74   75 1   
    75   74   78 1   
    76   75   76 1   
    77   75   79 1   
    78   75   80 1   
    79   76   77 2   
    80   76   81 1   
    81   81   82 1   
    82   81   93 1   
    83   82   83 1   
    84   82   85 1   
    85   82   94 1   
    86   83   84 2   
    87   83  102 1   
    88   85   86 1   
    89   85   95 1   
    90   85   96 1   
    91   86   87 ar  
    92   86   88 ar  
    93   87   89 ar  
    94   87   97 1   
    95   88   90 ar  
    96   88   98 1   
    97   89   91 ar  
    98   89   99 1   
    99   90   91 ar  
   100   90  100 1   
   101   91   92 1   
   102   92  101 1   
   103  102  103 1   
   104  102  110 1   
   105  103  104 1   
   106  103  106 1   
   107  103  111 1   
   108  104  105 2   
   109  104  121 1   
   110  106  107 1   
   111  106  108 1   
   112  106  112 1   
   113  107  109 1   
   114  107  113 1   
   115  107  114 1   
   116  108  115 1   
   117  108  116 1   
   118  108  117 1   
   119  109  118 1   
   120  109  119 1   
   121  109  120 1   
   122  121  122 1   
   123  121  127 1   
   124  122  123 1   
   125  122  125 1   
   126  122  128 1   
   127  123  124 2   
   128  123  132 1   
   129  125  126 1   
   130  125  129 1   
   131  125  130 1   
   132  126  131 1   
   133  132  133 1   
   134  132  137 1   
   135  133  134 1   
   136  133  136 1   
   137  133  138 1   
   138  134  135 2   
   139  134  142 1   
   140  136  139 1   
   141  136  140 1   
   142  136  141 1   
   143  142  143 1   
   144  142  147 1   
   145  143  144 1   
   146  143  146 1   
   147  143  148 1   
   148  144  145 2   
   149  144  152 1   
   150  146  149 1   
   151  146  150 1   
   152  146  151 1   
   153  152  153 1   
   154  152  161 1   
   155  153  154 1   
   156  153  156 1   
   157  153  162 1   
   158  154  155 2   
   159  154  167 1   
   160  156  157 1   
   161  156  163 1   
   162  156  164 1   
   163  157  158 1   
   164  157  165 1   
   165  157  166 1   
   166  158  159 1   
   167  158  160 1   
   168  167  168 1   
   169  167  172 1   
   170  168  169 1   
   171  168  170 1   
   172  168  171 1   
   173  174  175 1   
   174  174  176 1   
   175  177  178 1   
   176  177  179 1   
   177  180  181 1   
   178  180  182 1   
   179  183  184 1   
   180  183  185 1   
   181  186  187 1   
   182  186  188 1   
   183  189  190 1   
   184  189  191 1   
   185  192  193 1   
   186  192  194 1   
@<TRIPOS>SUBSTRUCTURE
     1 MOL         1 TEMP              0 ****  ****    0 ROOT
