@<TRIPOS>MOLECULE
MOL
  181   177     1     0     0
SMALL
resp


@<TRIPOS>ATOM
      1 C1         -6.9300   -5.1250   -4.7930 c3        1 MOL     -0.360288
      2 C2         -6.5410   -3.7020   -4.3710 c         1 MOL      0.586064
      3 O1         -5.7580   -2.9470   -4.9160 o         1 MOL     -0.560226
      4 H1         -6.0490   -5.7660   -4.7650 hc        1 MOL      0.088600
      5 H2         -7.6830   -5.5150   -4.1080 hc        1 MOL      0.088600
      6 H3         -7.3340   -5.1070   -5.8050 hc        1 MOL      0.088600
      7 N1         -7.1620   -3.1420   -3.3380 n         1 MOL     -0.323124
      8 C3         -8.3730   -3.6540   -2.6980 c3        1 MOL      0.229223
      9 C4         -8.0020   -3.9780   -1.2230 c         1 MOL      0.423493
     10 O2         -6.8780   -3.8510   -0.8080 o         1 MOL     -0.429299
     11 C5         -9.4730   -2.6610   -2.8430 c3        1 MOL     -0.483144
     12 C6         -9.0700   -1.2570   -2.4030 c         1 MOL      0.814555
     13 O3         -8.4830   -0.4330   -3.1910 o         1 MOL     -0.719468
     14 O4         -9.4570   -0.8780   -1.2840 o         1 MOL     -0.719468
     15 H4         -7.0350   -2.1580   -3.1300 hn        1 MOL      0.233061
     16 H5         -8.7480   -4.6310   -3.0000 h1        1 MOL      0.032706
     17 H6        -10.3850   -2.8330   -2.2930 hc        1 MOL      0.096202
     18 H7         -9.7760   -2.6220   -3.8890 hc        1 MOL      0.096202
     19 N2         -9.0380   -4.3380   -0.4280 n         1 MOL     -0.506714
     20 C7         -8.9610   -4.5130    1.0450 c3        1 MOL      0.240973
     21 C8         -8.6230   -3.2460    1.8810 c         1 MOL      0.418148
     22 O5         -9.0290   -3.1280    3.0490 o         1 MOL     -0.573612
     23 C9         -8.2150   -5.8080    1.4640 c3        1 MOL     -0.418745
     24 H8         -9.9270   -4.5480   -0.8680 hn        1 MOL      0.278264
     25 H9        -10.0260   -4.6310    1.2530 h1        1 MOL      0.022553
     26 H10        -7.1700   -5.7020    1.1420 hc        1 MOL      0.119213
     27 H11        -8.2490   -5.8250    2.5520 hc        1 MOL      0.119213
     28 H12        -8.7700   -6.6200    1.0070 hc        1 MOL      0.119213
     29 N3         -7.9200   -2.2950    1.2500 n         1 MOL     -0.079627
     30 C10        -7.1740   -1.2210    1.9350 c3        1 MOL     -0.020119
     31 C11        -7.9620    0.0490    1.9920 c         1 MOL      0.352845
     32 O6         -8.6970    0.4370    1.0900 o         1 MOL     -0.472131
     33 C12        -5.7320   -1.1070    1.4090 c3        1 MOL      0.080258
     34 C13        -5.4670   -0.7800   -0.0500 c         1 MOL      0.456039
     35 O7         -4.4440   -1.2070   -0.6540 o         1 MOL     -0.572906
     36 O8         -6.4380   -0.2240   -0.6760 o         1 MOL     -0.572906
     37 H13        -7.9780   -2.3700    0.2420 hn        1 MOL      0.046934
     38 H14        -7.0780   -1.4700    2.9950 h1        1 MOL      0.038529
     39 H15        -5.1890   -2.0260    1.6150 hc        1 MOL      0.002382
     40 H16        -5.1530   -0.3940    1.9950 hc        1 MOL      0.002382
     41 N4         -7.5430    0.8190    2.9670 n         1 MOL     -0.202933
     42 C14        -7.5520    2.2040    2.9140 c3        1 MOL     -0.353256
     43 C15        -6.4650    2.7270    1.9150 c         1 MOL      0.603412
     44 O9         -6.7890    2.7490    0.7180 o         1 MOL     -0.552786
     45 H17        -7.0520    0.4190    3.7600 hn        1 MOL      0.275215
     46 H18        -7.2060    2.5380    3.8970 h1        1 MOL      0.131679
     47 H19        -8.4900    2.5610    2.5070 h1        1 MOL      0.131679
     48 N5         -5.2600    3.1310    2.4100 n         1 MOL     -0.467048
     49 C16        -4.2500    3.7570    1.6160 c3        1 MOL      0.091168
     50 C17        -2.8710    3.2730    2.1090 c         1 MOL      0.575446
     51 O10        -2.4620    3.4480    3.2920 o         1 MOL     -0.555248
     52 C18        -4.4320    5.2810    1.7770 c3        1 MOL     -0.334763
     53 C19        -3.3910    6.1270    0.9310 c         1 MOL      0.688786
     54 N6         -2.4100    6.7280    1.5540 n         1 MOL     -0.812546
     55 O11        -3.5510    6.2230   -0.2060 o         1 MOL     -0.550914
     56 H20        -5.0480    2.9520    3.3860 hn        1 MOL      0.319222
     57 H21        -4.3710    3.3360    0.6180 h1        1 MOL      0.072505
     58 H22        -4.3740    5.5310    2.8330 hc        1 MOL      0.090726
     59 H23        -5.4130    5.6050    1.4390 hc        1 MOL      0.090726
     60 H24        -2.3270    6.6420    2.5570 hn        1 MOL      0.384778
     61 H25        -1.7440    7.1870    0.9360 hn        1 MOL      0.384778
     62 N7         -2.1530    2.6300    1.1930 n         1 MOL     -0.561567
     63 C20        -0.8810    1.9320    1.3520 c3        1 MOL      0.158517
     64 C21        -0.9370    0.7090    2.3570 c         1 MOL      0.337038
     65 O12        -1.9120   -0.0070    2.4240 o         1 MOL     -0.501201
     66 H26        -2.6090    2.5830    0.2920 hn        1 MOL      0.341054
     67 H27        -0.1230    2.6810    1.5830 h1        1 MOL      0.088323
     68 H28        -0.5590    1.5750    0.3770 h1        1 MOL      0.088323
     69 N8          0.1530    0.4610    3.1060 n         1 MOL     -0.154548
     70 C22         1.3620    1.2950    3.1900 c3        1 MOL     -0.441555
     71 C23         2.1230    1.5080    1.9800 c         1 MOL      0.496404
     72 O13         2.6430    2.5940    1.6910 o         1 MOL     -0.528453
     73 C24         2.3510    0.7280    4.1470 c3        1 MOL      0.431035
     74 C25         2.0830    1.1140    5.6390 c3        1 MOL     -0.194402
     75 O14         2.2820   -0.7510    4.1640 oh        1 MOL     -0.635809
     76 H29         0.2010   -0.4460    3.5560 hn        1 MOL      0.248745
     77 H30         1.1650    2.2780    3.6180 h1        1 MOL      0.157882
     78 H31         3.3740    0.9850    3.8830 h1        1 MOL      0.051399
     79 H32         2.9850   -1.1080    4.7170 ho        1 MOL      0.398535
     80 H33         2.2590    0.3080    6.3470 hc        1 MOL      0.035685
     81 H34         2.7380    1.9460    5.9420 hc        1 MOL      0.035685
     82 H35         1.0590    1.4740    5.6610 hc        1 MOL      0.035685
     83 N9          2.1920    0.5180    1.1470 n         1 MOL     -0.209196
     84 C26         2.9530    0.5880   -0.1440 c3        1 MOL     -0.589320
     85 C27         2.3270    1.6000   -1.1430 c         1 MOL      0.715735
     86 O15         1.1570    1.4910   -1.4820 o         1 MOL     -0.604669
     87 C28         3.1400   -0.8560   -0.8650 c3        1 MOL      0.226923
     88 C29         1.8850   -1.3900   -1.5980 c3        1 MOL     -0.015679
     89 C30         3.6980   -1.8430    0.1350 c3        1 MOL     -0.174959
     90 C31         2.1400   -2.6410   -2.4510 c3        1 MOL     -0.312024
     91 H36         1.9080   -0.3780    1.5200 hn        1 MOL      0.251887
     92 H37         3.8950    0.9750    0.2200 h1        1 MOL      0.227485
     93 H38         3.9180   -0.6430   -1.6000 hc        1 MOL      0.066820
     94 H39         1.4280   -0.6690   -2.2790 hc        1 MOL      0.063124
     95 H40         1.1090   -1.7020   -0.9000 hc        1 MOL      0.063124
     96 H41         2.8910   -2.1190    0.8130 hc        1 MOL      0.058463
     97 H42         4.1870   -2.6230   -0.4570 hc        1 MOL      0.058463
     98 H43         4.4670   -1.4270    0.7980 hc        1 MOL      0.058463
     99 H44         1.1590   -3.0060   -2.7720 hc        1 MOL      0.065697
    100 H45         2.7290   -2.3060   -3.3120 hc        1 MOL      0.065697
    101 H46         2.6480   -3.4390   -1.9190 hc        1 MOL      0.065697
    102 N10         3.1050    2.3680   -1.8840 n         1 MOL     -0.545563
    103 C32         4.5020    2.8030   -1.7420 c3        1 MOL      0.196543
    104 C33         5.5680    1.7630   -2.0880 c         1 MOL      0.628760
    105 O16         5.3080    0.8670   -2.8190 o         1 MOL     -0.602738
    106 C34         4.7000    4.1990   -2.4220 c3        1 MOL     -0.070144
    107 C35         5.9950    4.8830   -2.0530 c         1 MOL      0.657022
    108 O17         6.4720    4.7030   -0.9050 o         1 MOL     -0.712679
    109 O18         6.5440    5.5450   -2.9910 o         1 MOL     -0.712679
    110 H47         2.6700    2.6790   -2.7480 hn        1 MOL      0.288935
    111 H48         4.6380    3.0380   -0.6830 h1        1 MOL      0.008971
    112 H49         3.9080    4.9160   -2.2100 hc        1 MOL     -0.010121
    113 H50         4.6840    4.1410   -3.5080 hc        1 MOL     -0.010121
    114 N11         6.7660    1.8900   -1.5910 n         1 MOL     -0.529526
    115 C36         7.9010    0.9940   -1.7040 c3        1 MOL      0.195660
    116 C37         8.9260    1.5050   -0.6790 c         1 MOL      0.314473
    117 O19         9.1150    2.7260   -0.6330 o         1 MOL     -0.437425
    118 C38         8.5880    1.0140   -3.1070 c3        1 MOL     -0.352565
    119 C39         9.8270    0.1480   -3.3010 ca        1 MOL      0.132696
    120 C40        11.0720    0.6140   -2.8900 ca        1 MOL     -0.163903
    121 C41         9.6460   -1.0740   -4.1200 ca        1 MOL     -0.163903
    122 C42        12.2150   -0.1230   -3.2240 ca        1 MOL     -0.087430
    123 C43        10.7990   -1.7250   -4.4640 ca        1 MOL     -0.087430
    124 C44        12.1020   -1.2930   -4.0570 ca        1 MOL     -0.203099
    125 H51         6.9100    2.6710   -0.9660 hn        1 MOL      0.322137
    126 H52         7.4680    0.0270   -1.4690 h1        1 MOL      0.048546
    127 H53         8.7780    2.0810   -3.1670 hc        1 MOL      0.136443
    128 H54         7.9080    0.7000   -3.9040 hc        1 MOL      0.136443
    129 H55        11.0810    1.4700   -2.2310 ha        1 MOL      0.133001
    130 H56         8.6830   -1.4770   -4.4370 ha        1 MOL      0.133001
    131 H57        13.1470    0.2660   -2.8380 ha        1 MOL      0.092507
    132 H58        10.6830   -2.6100   -5.0670 ha        1 MOL      0.092507
    133 H59        12.9820   -1.8360   -4.3740 ha        1 MOL      0.114587
    134 N12         9.6300    0.6430    0.1080 n         1 MOL     -0.046868
    135 C45         9.4050   -0.7950    0.1440 c3        1 MOL      0.210715
    136 C46         8.0720   -1.3980    0.6250 c         1 MOL      0.482767
    137 O20         7.0570   -0.7000    0.6060 o         1 MOL     -0.563580
    138 C47        10.4810   -1.2680    1.1690 c3        1 MOL     -0.187911
    139 C48        11.5640   -0.2290    0.9800 c3        1 MOL      0.269623
    140 C49        10.7610    1.0750    0.9250 c3        1 MOL     -0.029799
    141 H60         9.6000   -1.1960   -0.8480 h1        1 MOL     -0.024465
    142 H61        10.0420   -1.2510    2.1720 hc        1 MOL      0.019393
    143 H62        10.7820   -2.2570    0.8520 hc        1 MOL      0.019393
    144 H63        12.3210   -0.3120    1.7560 hc        1 MOL     -0.072201
    145 H64        12.0670   -0.3930    0.0290 hc        1 MOL     -0.072201
    146 H65        10.5900    1.4600    1.9260 h1        1 MOL      0.029082
    147 H66        11.3910    1.7700    0.3620 h1        1 MOL      0.029082
    148 N13         8.0040   -2.6410    1.0630 n         1 MOL     -0.574329
    149 C50         6.8060   -3.3290    1.5380 c3        1 MOL      0.547010
    150 C51         6.7350   -4.8250    1.1760 c         1 MOL      0.288578
    151 O21         6.7630   -5.6780    2.0180 o         1 MOL     -0.499508
    152 C52         6.7080   -3.1100    3.0740 c3        1 MOL     -0.190642
    153 C53         5.3230   -3.5170    3.5120 c3        1 MOL     -0.072536
    154 C54         5.2210   -3.0770    4.9470 c         1 MOL      0.675593
    155 O22         4.4900   -2.0980    5.1670 o         1 MOL     -0.711274
    156 O23         5.8920   -3.5880    5.8590 o         1 MOL     -0.711274
    157 H67         8.8630   -3.1830    1.1470 hn        1 MOL      0.276789
    158 H68         5.9310   -2.9090    1.0390 h1        1 MOL     -0.048183
    159 H69         6.8140   -2.0250    3.1360 hc        1 MOL      0.068168
    160 H70         7.5330   -3.6530    3.5440 hc        1 MOL      0.068168
    161 H71         5.2410   -4.6020    3.4430 hc        1 MOL     -0.014066
    162 H72         4.6280   -2.9470    2.9010 hc        1 MOL     -0.014066
    163 N14         6.8200   -5.2260   -0.0670 n         1 MOL     -0.326459
    164 C55         7.0020   -4.5790   -1.3800 c3        1 MOL     -0.058643
    165 H73         7.2280   -5.3370   -2.1300 h1        1 MOL      0.050907
    166 H74         6.0870   -4.0550   -1.6580 h1        1 MOL      0.050907
    167 H75         7.8260   -3.8680   -1.3240 h1        1 MOL      0.050907
    168 H76         6.6530   -6.2160   -0.1460 hn        1 MOL      0.258497
    169 Ca1        -8.2710    1.4300   -1.2700 Ca        1 MOL      1.707500
    170 O24        -6.1540    2.0220   -2.9010 oh        1 MOL     -0.848247
    171 H77        -6.2890    2.4730   -3.7390 ho        1 MOL      0.415425
    172 H78        -5.6520    1.2350   -3.1330 ho        1 MOL      0.415425
    173 O25        -8.3760    4.0930   -1.1000 oh        1 MOL     -0.848247
    174 H79        -8.8950    4.7840   -1.5240 ho        1 MOL      0.415425
    175 H80        -7.4820    4.4070   -1.1450 ho        1 MOL      0.415425
    176 O26       -10.7740    1.9720   -1.1790 oh        1 MOL     -0.848247
    177 H81       -11.5990    1.5140   -1.3120 ho        1 MOL      0.415425
    178 H82       -11.0230    2.8870   -1.0530 ho        1 MOL      0.415425
    179 O27        -8.9050    2.4200   -3.7120 oh        1 MOL     -0.848247
    180 H83        -9.7810    2.7870   -3.5910 ho        1 MOL      0.415425
    181 H84        -8.5370    2.9030   -4.4520 ho        1 MOL      0.415425
@<TRIPOS>BOND
     1    1    2 1   
     2    1    4 1   
     3    1    5 1   
     4    1    6 1   
     5    2    3 2   
     6    2    7 1   
     7    7    8 1   
     8    7   15 1   
     9    8    9 1   
    10    8   11 1   
    11    8   16 1   
    12    9   10 2   
    13    9   19 1   
    14   11   12 1   
    15   11   17 1   
    16   11   18 1   
    17   12   13 1   
    18   12   14 1   
    19   19   20 1   
    20   19   24 1   
    21   20   21 1   
    22   20   23 1   
    23   20   25 1   
    24   21   22 2   
    25   21   29 1   
    26   23   26 1   
    27   23   27 1   
    28   23   28 1   
    29   29   30 1   
    30   29   37 1   
    31   30   31 1   
    32   30   33 1   
    33   30   38 1   
    34   31   32 2   
    35   31   41 1   
    36   33   34 1   
    37   33   39 1   
    38   33   40 1   
    39   34   35 1   
    40   34   36 1   
    41   41   42 1   
    42   41   45 1   
    43   42   43 1   
    44   42   46 1   
    45   42   47 1   
    46   43   44 2   
    47   43   48 1   
    48   48   49 1   
    49   48   56 1   
    50   49   50 1   
    51   49   52 1   
    52   49   57 1   
    53   50   51 2   
    54   50   62 1   
    55   52   53 1   
    56   52   58 1   
    57   52   59 1   
    58   53   54 1   
    59   53   55 2   
    60   54   60 1   
    61   54   61 1   
    62   62   63 1   
    63   62   66 1   
    64   63   64 1   
    65   63   67 1   
    66   63   68 1   
    67   64   65 2   
    68   64   69 1   
    69   69   70 1   
    70   69   76 1   
    71   70   71 1   
    72   70   73 1   
    73   70   77 1   
    74   71   72 2   
    75   71   83 1   
    76   73   74 1   
    77   73   75 1   
    78   73   78 1   
    79   74   80 1   
    80   74   81 1   
    81   74   82 1   
    82   75   79 1   
    83   83   84 1   
    84   83   91 1   
    85   84   85 1   
    86   84   87 1   
    87   84   92 1   
    88   85   86 2   
    89   85  102 1   
    90   87   88 1   
    91   87   89 1   
    92   87   93 1   
    93   88   90 1   
    94   88   94 1   
    95   88   95 1   
    96   89   96 1   
    97   89   97 1   
    98   89   98 1   
    99   90   99 1   
   100   90  100 1   
   101   90  101 1   
   102  102  103 1   
   103  102  110 1   
   104  103  104 1   
   105  103  106 1   
   106  103  111 1   
   107  104  105 2   
   108  104  114 1   
   109  106  107 1   
   110  106  112 1   
   111  106  113 1   
   112  107  108 1   
   113  107  109 1   
   114  114  115 1   
   115  114  125 1   
   116  115  116 1   
   117  115  118 1   
   118  115  126 1   
   119  116  117 2   
   120  116  134 1   
   121  118  119 1   
   122  118  127 1   
   123  118  128 1   
   124  119  120 ar  
   125  119  121 ar  
   126  120  122 ar  
   127  120  129 1   
   128  121  123 ar  
   129  121  130 1   
   130  122  124 ar  
   131  122  131 1   
   132  123  124 ar  
   133  123  132 1   
   134  124  133 1   
   135  134  135 1   
   136  134  140 1   
   137  135  136 1   
   138  135  138 1   
   139  135  141 1   
   140  136  137 2   
   141  136  148 1   
   142  138  139 1   
   143  138  142 1   
   144  138  143 1   
   145  139  140 1   
   146  139  144 1   
   147  139  145 1   
   148  140  146 1   
   149  140  147 1   
   150  148  149 1   
   151  148  157 1   
   152  149  150 1   
   153  149  152 1   
   154  149  158 1   
   155  150  151 2   
   156  150  163 1   
   157  152  153 1   
   158  152  159 1   
   159  152  160 1   
   160  153  154 1   
   161  153  161 1   
   162  153  162 1   
   163  154  155 1   
   164  154  156 1   
   165  163  164 1   
   166  163  168 1   
   167  164  165 1   
   168  164  166 1   
   169  164  167 1   
   170  170  171 1   
   171  170  172 1   
   172  173  174 1   
   173  173  175 1   
   174  176  177 1   
   175  176  178 1   
   176  179  180 1   
   177  179  181 1   
@<TRIPOS>SUBSTRUCTURE
     1 MOL         1 TEMP              0 ****  ****    0 ROOT
