@<TRIPOS>MOLECULE
MOL
  182   178     1     0     0
SMALL
resp


@<TRIPOS>ATOM
      1 C1          0.4960   -4.6630    6.0980 c3        1 MOL     -0.387093
      2 C2          0.4890   -4.2700    4.5620 c         1 MOL      0.717004
      3 O1         -0.5350   -4.1250    3.9230 o         1 MOL     -0.604891
      4 H1          0.8450   -3.8150    6.6870 hc        1 MOL      0.108547
      5 H2         -0.5130   -4.9310    6.4100 hc        1 MOL      0.108547
      6 H3          1.1630   -5.5110    6.2530 hc        1 MOL      0.108547
      7 N1          1.6490   -4.0390    3.9450 n         1 MOL     -0.558400
      8 C3          1.8570   -3.4810    2.6110 c3        1 MOL     -0.090187
      9 C4          2.2220   -4.5960    1.6020 c         1 MOL      0.642797
     10 O2          2.8580   -5.6230    1.9630 o         1 MOL     -0.571041
     11 C5          3.0190   -2.5610    2.8050 c3        1 MOL     -0.107619
     12 C6          3.2430   -1.6910    1.5430 c         1 MOL      0.898599
     13 O3          3.8980   -0.6660    1.6610 o         1 MOL     -0.774194
     14 O4          2.6810   -1.9000    0.4550 o         1 MOL     -0.774194
     15 H4          2.5380   -4.0370    4.4130 hn        1 MOL      0.301808
     16 H5          0.9830   -2.9290    2.2720 h1        1 MOL      0.112798
     17 H6          3.9760   -3.0800    2.9290 hc        1 MOL      0.033639
     18 H7          2.9230   -1.7800    3.5600 hc        1 MOL      0.033639
     19 N2          1.7340   -4.4680    0.3890 n         1 MOL     -0.422536
     20 C7          1.8670   -5.3580   -0.7630 c3        1 MOL     -0.065053
     21 C8          3.1360   -5.1620   -1.6630 c         1 MOL      0.516318
     22 O5          3.3220   -6.0740   -2.5060 o         1 MOL     -0.562620
     23 C9          0.5870   -5.1630   -1.6060 c3        1 MOL      0.036029
     24 C10        -0.6240   -5.7090   -0.9030 c3        1 MOL      0.073335
     25 C11        -1.8780   -5.6620   -1.8350 c3        1 MOL     -0.004729
     26 C12        -3.0400   -6.4600   -1.2990 c3        1 MOL     -0.070790
     27 N3         -3.9320   -5.6080   -0.4140 n4        1 MOL     -0.467750
     28 H8          1.2040   -3.6240    0.2200 hn        1 MOL      0.259063
     29 H9          1.9560   -6.3990   -0.4310 h1        1 MOL      0.120623
     30 H10         0.7140   -5.6290   -2.5870 hc        1 MOL      0.004385
     31 H11         0.3800   -4.1090   -1.7650 hc        1 MOL      0.004385
     32 H12        -0.8680   -5.0530   -0.0580 hc        1 MOL     -0.003606
     33 H13        -0.4550   -6.7440   -0.5860 hc        1 MOL     -0.003606
     34 H14        -1.7010   -6.1070   -2.8120 hc        1 MOL      0.015982
     35 H15        -2.1430   -4.6240   -2.0490 hc        1 MOL      0.015982
     36 H16        -2.6890   -7.3690   -0.8110 hx        1 MOL      0.137412
     37 H17        -3.6110   -6.9460   -2.0840 hx        1 MOL      0.137412
     38 H18        -4.1710   -4.7460   -0.8940 hn        1 MOL      0.317395
     39 H19        -4.7870   -6.0790   -0.1690 hn        1 MOL      0.317395
     40 H20        -3.4870   -5.4650    0.4820 hn        1 MOL      0.317395
     41 N4          3.8760   -4.0940   -1.5410 n         1 MOL     -0.354005
     42 C13         5.1650   -3.8620   -2.3020 c3        1 MOL      0.235299
     43 C14         6.3480   -3.4440   -1.3900 c         1 MOL      0.360631
     44 O6          7.4910   -3.8280   -1.6100 o         1 MOL     -0.521073
     45 C15         4.9710   -2.8600   -3.4690 c3        1 MOL     -0.450893
     46 C16         4.7270   -1.4180   -3.1650 c         1 MOL      0.915890
     47 O7          4.5220   -1.0750   -1.9890 o         1 MOL     -0.754758
     48 O8          4.5500   -0.5580   -4.0840 o         1 MOL     -0.754758
     49 H21         3.7170   -3.4800   -0.7620 hn        1 MOL      0.221538
     50 H22         5.4380   -4.8470   -2.6880 h1        1 MOL      0.069916
     51 H23         4.0600   -3.1990   -3.9640 hc        1 MOL      0.116766
     52 H24         5.7950   -2.9160   -4.1850 hc        1 MOL      0.116766
     53 N5          6.0980   -2.7530   -0.2920 n         1 MOL     -0.014478
     54 C17         6.9860   -2.1780    0.6860 c3        1 MOL     -0.247419
     55 C18         7.5910   -0.7720    0.3190 c         1 MOL      0.514216
     56 O9          8.5900   -0.4130    0.8910 o         1 MOL     -0.511246
     57 H25         5.1630   -2.3780   -0.2730 hn        1 MOL     -0.121937
     58 H26         7.7600   -2.8960    0.9760 h1        1 MOL      0.137866
     59 H27         6.4290   -2.1440    1.6230 h1        1 MOL      0.137866
     60 N6          6.8660    0.0210   -0.4800 n         1 MOL     -0.185037
     61 C19         7.0790    1.4410   -0.8090 c3        1 MOL      0.059598
     62 C20         5.9010    2.3420   -0.7690 c         1 MOL      0.556346
     63 O10         4.7660    1.8790   -0.5840 o         1 MOL     -0.560432
     64 C21         7.9540    1.4830   -2.0870 c3        1 MOL     -0.429896
     65 C22         9.3010    0.9140   -2.0100 c         1 MOL      0.740038
     66 N7          9.5310   -0.1980   -2.7250 n         1 MOL     -0.770959
     67 O11        10.2340    1.5030   -1.4860 o         1 MOL     -0.551399
     68 H28         6.1230   -0.4770   -0.9600 hn        1 MOL      0.178079
     69 H29         7.7270    1.8620   -0.0460 h1        1 MOL      0.059519
     70 H30         8.1430    2.5330   -2.3270 hc        1 MOL      0.088960
     71 H31         7.3840    1.0510   -2.9060 hc        1 MOL      0.088960
     72 H32         8.7610   -0.5850   -3.2420 hn        1 MOL      0.360685
     73 H33        10.4740   -0.4680   -2.9590 hn        1 MOL      0.360685
     74 N8          6.1340    3.6360   -0.9230 n         1 MOL     -0.318151
     75 C23         5.2350    4.7490   -0.7750 c3        1 MOL     -0.207085
     76 C24         4.2830    4.6400    0.3920 c         1 MOL      0.612998
     77 O12         4.6780    4.2080    1.4740 o         1 MOL     -0.498350
     78 H34         7.0850    3.9160   -1.0990 hn        1 MOL      0.313211
     79 H35         4.6830    4.7140   -1.7230 h1        1 MOL      0.097269
     80 H36         5.7540    5.7010   -0.6860 h1        1 MOL      0.097269
     81 N9          2.9820    4.8070    0.1630 n         1 MOL     -0.506789
     82 C25         1.8960    4.6430    1.1530 c3        1 MOL      0.021051
     83 C26         1.7110    3.1530    1.5700 c         1 MOL      0.553600
     84 O13         2.3130    2.3340    0.9200 o         1 MOL     -0.435254
     85 C27         0.5850    5.1590    0.5630 c3        1 MOL     -0.046258
     86 C28         0.5130    6.6270    0.2060 ca        1 MOL      0.016649
     87 C29         0.5640    7.6400    1.2140 ca        1 MOL     -0.168040
     88 C30         0.2770    6.9590   -1.1530 ca        1 MOL     -0.168040
     89 C31         0.3890    9.0040    0.8590 ca        1 MOL     -0.246823
     90 C32         0.0450    8.3380   -1.5320 ca        1 MOL     -0.246823
     91 C33         0.0860    9.3180   -0.5100 ca        1 MOL      0.339958
     92 O14        -0.0290   10.5930   -0.9540 oh        1 MOL     -0.496725
     93 H37         2.6560    5.0740   -0.7580 hn        1 MOL      0.290421
     94 H38         2.1180    5.2340    2.0340 h1        1 MOL      0.082916
     95 H39        -0.2250    4.8930    1.2400 hc        1 MOL      0.032488
     96 H40         0.3360    4.5180   -0.2760 hc        1 MOL      0.032488
     97 H41         0.9360    7.4280    2.2030 ha        1 MOL      0.139396
     98 H42         0.2880    6.2120   -1.9350 ha        1 MOL      0.139396
     99 H43         0.5240    9.7660    1.6170 ha        1 MOL      0.164140
    100 H44        -0.2540    8.5790   -2.5440 ha        1 MOL      0.164140
    101 H45         0.0830   11.2860   -0.3030 ho        1 MOL      0.388758
    102 N10         0.8350    2.9360    2.5380 n         1 MOL     -0.698809
    103 C34         0.5240    1.5600    2.9380 c3        1 MOL     -0.018734
    104 C35         0.0020    0.6620    1.7910 c         1 MOL      0.672473
    105 O15         0.7050    0.1900    0.9250 o         1 MOL     -0.648656
    106 C36         1.6270    0.9230    3.9100 c3        1 MOL      0.490839
    107 C37         0.9690   -0.1230    4.9030 c3        1 MOL     -0.003081
    108 C38         2.4770    1.9300    4.7020 c3        1 MOL     -0.508956
    109 C39        -0.0960    0.4930    5.8680 c3        1 MOL     -0.251080
    110 H46         0.4980    3.6690    3.1490 hn        1 MOL      0.377483
    111 H47        -0.3350    1.7250    3.5890 h1        1 MOL      0.050097
    112 H48         2.2710    0.2800    3.3060 hc        1 MOL     -0.061790
    113 H49         1.7900   -0.4480    5.5350 hc        1 MOL      0.007963
    114 H50         0.5740   -0.9090    4.2690 hc        1 MOL      0.007963
    115 H51         3.0900    1.4340    5.4550 hc        1 MOL      0.129207
    116 H52         3.2200    2.3580    4.0210 hc        1 MOL      0.129207
    117 H53         1.9010    2.6590    5.2720 hc        1 MOL      0.129207
    118 H54         0.2610    1.4030    6.3440 hc        1 MOL      0.060109
    119 H55        -0.9910    0.6230    5.2420 hc        1 MOL      0.060109
    120 H56        -0.3270   -0.2650    6.6170 hc        1 MOL      0.060109
    121 N11        -1.2710    0.3090    1.8700 n         1 MOL     -0.479314
    122 C40        -1.9510   -0.4170    0.8090 c3        1 MOL      0.067621
    123 C41        -3.4320   -0.1910    0.7400 c         1 MOL      0.511537
    124 O16        -4.1650   -0.5180    1.6350 o         1 MOL     -0.516759
    125 C42        -1.7060   -1.8830    1.0400 c3        1 MOL     -0.003281
    126 O17        -0.3940   -2.2120    0.5990 oh        1 MOL     -0.406971
    127 H57        -1.8160    0.6450    2.6490 hn        1 MOL      0.304507
    128 H58        -1.5130   -0.1960   -0.1690 h1        1 MOL      0.069804
    129 H59        -2.3830   -2.5140    0.4690 h1        1 MOL      0.072963
    130 H60        -1.7980   -2.1810    2.0910 h1        1 MOL      0.072963
    131 H61         0.1530   -1.4250    0.5680 ho        1 MOL      0.294888
    132 N12        -3.9310    0.1570   -0.4540 n         1 MOL     -0.609447
    133 C43        -5.3150    0.4880   -0.6190 c3        1 MOL      0.415113
    134 C44        -5.6080    0.4990   -2.1510 c         1 MOL      0.513428
    135 O18        -4.7270    0.8310   -2.9350 o         1 MOL     -0.560386
    136 C45        -5.6920    1.7900    0.1800 c3        1 MOL     -0.532770
    137 H62        -3.3180    0.2900   -1.2440 hn        1 MOL      0.266377
    138 H63        -5.9040   -0.3520   -0.2490 h1        1 MOL      0.012987
    139 H64        -5.6110    1.5780    1.2490 hc        1 MOL      0.156626
    140 H65        -5.1040    2.6120   -0.2310 hc        1 MOL      0.156626
    141 H66        -6.7770    1.9390    0.1050 hc        1 MOL      0.156626
    142 N13        -6.7320    0.1060   -2.7150 n         1 MOL     -0.583873
    143 C46        -7.9900   -0.2490   -1.9710 c3        1 MOL      0.259106
    144 C47        -9.1020    0.7910   -2.3210 c         1 MOL      0.463259
    145 O19        -9.0920    1.3450   -3.4150 o         1 MOL     -0.536336
    146 C48        -8.3330   -1.7290   -2.2490 c3        1 MOL     -0.126613
    147 H67        -6.7730    0.0920   -3.7280 hn        1 MOL      0.361749
    148 H68        -7.8070   -0.1400   -0.8990 h1        1 MOL     -0.014728
    149 H69        -9.1990   -1.9610   -1.6300 hc        1 MOL      0.035379
    150 H70        -8.5830   -1.9610   -3.2870 hc        1 MOL      0.035379
    151 H71        -7.5030   -2.3720   -1.9680 hc        1 MOL      0.035379
    152 N14       -10.1130    1.0600   -1.5210 n         1 MOL     -0.469585
    153 C49       -10.3630    0.4520   -0.2670 c3        1 MOL     -0.063208
    154 C50        -9.9790    1.3020    0.9770 c         1 MOL      0.447678
    155 O20        -9.6820    0.7270    2.0290 o         1 MOL     -0.493112
    156 C51       -11.8380    0.0220   -0.1560 c3        1 MOL     -0.154289
    157 C52       -12.2710   -0.9880   -1.1600 c3        1 MOL     -0.066407
    158 C53       -13.4130   -1.8890   -0.7850 c         1 MOL      0.653280
    159 O21       -13.2300   -3.1040   -0.8970 o         1 MOL     -0.654587
    160 O22       -14.5610   -1.4200   -0.5870 o         1 MOL     -0.654587
    161 H72       -10.7730    1.7920   -1.7420 hn        1 MOL      0.348839
    162 H73        -9.7290   -0.4340   -0.2230 h1        1 MOL      0.143929
    163 H74       -12.5880    0.8060   -0.1920 hc        1 MOL      0.064115
    164 H75       -11.7560   -0.4860    0.8150 hc        1 MOL      0.064115
    165 H76       -11.3950   -1.6080   -1.3130 hc        1 MOL      0.031508
    166 H77       -12.5150   -0.4850   -2.0910 hc        1 MOL      0.031508
    167 N15        -9.6770    2.6340    0.7260 n         1 MOL     -0.266369
    168 C54        -9.1710    3.6860    1.6970 c3        1 MOL     -0.231409
    169 H78        -8.4400    3.2370    2.3690 h1        1 MOL      0.113526
    170 H79        -8.7020    4.4990    1.1410 h1        1 MOL      0.113526
    171 H80       -10.0060    4.0770    2.2780 h1        1 MOL      0.113526
    172 H81        -9.7880    2.9610   -0.2210 hn        1 MOL      0.212392
    173 Ca1         2.7700    0.3720   -0.9200 Ca        1 MOL      1.804120
    174 O23         1.0420   -1.2160   -2.2850 oh        1 MOL     -0.864342
    175 H82         1.2370   -1.4080   -3.1990 ho        1 MOL      0.419858
    176 H83         0.1890   -1.6220   -2.1260 ho        1 MOL      0.419858
    177 O24         1.0070    2.2380   -1.6530 oh        1 MOL     -0.864342
    178 H84         0.2830    2.4690   -1.0670 ho        1 MOL      0.419858
    179 H85         0.7670    2.6320   -2.4980 ho        1 MOL      0.419858
    180 O25         3.4170    1.7020   -3.1940 oh        1 MOL     -0.864342
    181 H86         3.6520    1.1150   -3.9130 ho        1 MOL      0.419858
    182 H87         3.4130    2.5710   -3.6010 ho        1 MOL      0.419858
@<TRIPOS>BOND
     1    1    2 1   
     2    1    4 1   
     3    1    5 1   
     4    1    6 1   
     5    2    3 2   
     6    2    7 1   
     7    7    8 1   
     8    7   15 1   
     9    8    9 1   
    10    8   11 1   
    11    8   16 1   
    12    9   10 2   
    13    9   19 1   
    14   11   12 1   
    15   11   17 1   
    16   11   18 1   
    17   12   13 1   
    18   12   14 1   
    19   19   20 1   
    20   19   28 1   
    21   20   21 1   
    22   20   23 1   
    23   20   29 1   
    24   21   22 2   
    25   21   41 1   
    26   23   24 1   
    27   23   30 1   
    28   23   31 1   
    29   24   25 1   
    30   24   32 1   
    31   24   33 1   
    32   25   26 1   
    33   25   34 1   
    34   25   35 1   
    35   26   27 1   
    36   26   36 1   
    37   26   37 1   
    38   27   38 1   
    39   27   39 1   
    40   27   40 1   
    41   41   42 1   
    42   41   49 1   
    43   42   43 1   
    44   42   45 1   
    45   42   50 1   
    46   43   44 2   
    47   43   53 1   
    48   45   46 1   
    49   45   51 1   
    50   45   52 1   
    51   46   47 1   
    52   46   48 1   
    53   53   54 1   
    54   53   57 1   
    55   54   55 1   
    56   54   58 1   
    57   54   59 1   
    58   55   56 2   
    59   55   60 1   
    60   60   61 1   
    61   60   68 1   
    62   61   62 1   
    63   61   64 1   
    64   61   69 1   
    65   62   63 2   
    66   62   74 1   
    67   64   65 1   
    68   64   70 1   
    69   64   71 1   
    70   65   66 1   
    71   65   67 2   
    72   66   72 1   
    73   66   73 1   
    74   74   75 1   
    75   74   78 1   
    76   75   76 1   
    77   75   79 1   
    78   75   80 1   
    79   76   77 2   
    80   76   81 1   
    81   81   82 1   
    82   81   93 1   
    83   82   83 1   
    84   82   85 1   
    85   82   94 1   
    86   83   84 2   
    87   83  102 1   
    88   85   86 1   
    89   85   95 1   
    90   85   96 1   
    91   86   87 ar  
    92   86   88 ar  
    93   87   89 ar  
    94   87   97 1   
    95   88   90 ar  
    96   88   98 1   
    97   89   91 ar  
    98   89   99 1   
    99   90   91 ar  
   100   90  100 1   
   101   91   92 1   
   102   92  101 1   
   103  102  103 1   
   104  102  110 1   
   105  103  104 1   
   106  103  106 1   
   107  103  111 1   
   108  104  105 2   
   109  104  121 1   
   110  106  107 1   
   111  106  108 1   
   112  106  112 1   
   113  107  109 1   
   114  107  113 1   
   115  107  114 1   
   116  108  115 1   
   117  108  116 1   
   118  108  117 1   
   119  109  118 1   
   120  109  119 1   
   121  109  120 1   
   122  121  122 1   
   123  121  127 1   
   124  122  123 1   
   125  122  125 1   
   126  122  128 1   
   127  123  124 2   
   128  123  132 1   
   129  125  126 1   
   130  125  129 1   
   131  125  130 1   
   132  126  131 1   
   133  132  133 1   
   134  132  137 1   
   135  133  134 1   
   136  133  136 1   
   137  133  138 1   
   138  134  135 2   
   139  134  142 1   
   140  136  139 1   
   141  136  140 1   
   142  136  141 1   
   143  142  143 1   
   144  142  147 1   
   145  143  144 1   
   146  143  146 1   
   147  143  148 1   
   148  144  145 2   
   149  144  152 1   
   150  146  149 1   
   151  146  150 1   
   152  146  151 1   
   153  152  153 1   
   154  152  161 1   
   155  153  154 1   
   156  153  156 1   
   157  153  162 1   
   158  154  155 2   
   159  154  167 1   
   160  156  157 1   
   161  156  163 1   
   162  156  164 1   
   163  157  158 1   
   164  157  165 1   
   165  157  166 1   
   166  158  159 1   
   167  158  160 1   
   168  167  168 1   
   169  167  172 1   
   170  168  169 1   
   171  168  170 1   
   172  168  171 1   
   173  174  175 1   
   174  174  176 1   
   175  177  178 1   
   176  177  179 1   
   177  180  181 1   
   178  180  182 1   
@<TRIPOS>SUBSTRUCTURE
     1 MOL         1 TEMP              0 ****  ****    0 ROOT
