@<TRIPOS>MOLECULE
MOL
  189   185     1     0     0
SMALL
resp


@<TRIPOS>ATOM
      1 C1         -4.2740   -2.9000    6.1560 c3        1 MOL     -0.309308
      2 C2         -4.1070   -2.5460    4.6060 c         1 MOL      0.791550
      3 O1         -3.7010   -3.4050    3.8360 o         1 MOL     -0.641827
      4 H1         -3.3570   -2.6440    6.6880 hc        1 MOL      0.072049
      5 H2         -5.1060   -2.3300    6.5720 hc        1 MOL      0.072049
      6 H3         -4.4720   -3.9660    6.2670 hc        1 MOL      0.072049
      7 N1         -4.4460   -1.3650    4.1750 n         1 MOL     -0.661522
      8 C3         -4.4790   -0.9900    2.7740 c3        1 MOL      0.223505
      9 C4         -3.0880   -0.6360    2.1850 c         1 MOL      0.138676
     10 O2         -2.9750   -0.3980    1.0120 o         1 MOL     -0.119692
     11 C5         -5.5340    0.1300    2.5420 c3        1 MOL     -0.155535
     12 C6         -5.5600    1.2320    3.5470 c         1 MOL      0.648678
     13 O3         -5.1840    2.3630    3.1770 o         1 MOL     -0.694976
     14 O4         -5.7830    0.9400    4.7740 o         1 MOL     -0.694976
     15 H4         -4.7070   -0.6600    4.8350 hn        1 MOL      0.351925
     16 H5         -4.7210   -1.9120    2.2470 h1        1 MOL      0.074581
     17 H6         -6.5250   -0.2570    2.3350 hc        1 MOL      0.048128
     18 H7         -5.2420    0.5250    1.5640 hc        1 MOL      0.048128
     19 N2         -2.0720   -0.7420    3.0330 n         1 MOL     -0.237173
     20 C7         -0.7330   -0.2480    2.7250 c3        1 MOL      0.141211
     21 C8          0.3210   -1.3470    2.9660 c         1 MOL      0.579321
     22 O5          0.4080   -1.9440    4.0360 o         1 MOL     -0.552084
     23 C9         -0.5180    1.0050    3.5270 c3        1 MOL      0.057703
     24 C10        -1.5710    2.1240    3.2370 c3        1 MOL      0.106958
     25 C11        -1.2010    3.4760    3.8550 c3        1 MOL     -0.223730
     26 C12        -2.1730    4.6110    3.3890 c3        1 MOL      0.150594
     27 N3         -3.5270    4.3820    3.9110 n4        1 MOL     -0.416825
     28 H8         -2.2210   -0.9160    4.0230 hn        1 MOL      0.204741
     29 H9         -0.7530   -0.0230    1.6600 h1        1 MOL     -0.055484
     30 H10         0.4860    1.3800    3.3360 hc        1 MOL     -0.015991
     31 H11        -0.4930    0.6130    4.5430 hc        1 MOL     -0.015991
     32 H12        -2.5570    1.8140    3.5930 hc        1 MOL      0.022643
     33 H13        -1.6370    2.2140    2.1560 hc        1 MOL      0.022643
     34 H14        -0.2030    3.7740    3.5320 hc        1 MOL      0.079702
     35 H15        -1.2160    3.3630    4.9410 hc        1 MOL      0.079702
     36 H16        -2.1090    4.7950    2.3100 hx        1 MOL      0.033858
     37 H17        -1.8220    5.5470    3.8280 hx        1 MOL      0.033858
     38 H18        -4.0030    3.5900    3.5120 hn        1 MOL      0.314723
     39 H19        -3.4330    4.0100    4.8460 hn        1 MOL      0.314723
     40 H20        -4.1020    5.2060    3.9370 hn        1 MOL      0.314723
     41 N4          1.1630   -1.6760    1.9990 n         1 MOL     -0.452604
     42 C13         1.5360   -0.9460    0.7750 c3        1 MOL     -0.089992
     43 C14         1.8600    0.5410    1.0450 c         1 MOL      0.103916
     44 O6          1.2710    1.4360    0.4450 o         1 MOL     -0.341436
     45 C15         0.6410   -1.2180   -0.4560 c3        1 MOL      0.069975
     46 C16         0.4820   -2.6980   -0.8280 c         1 MOL      0.627932
     47 O7          1.2310   -3.6060   -0.3280 o         1 MOL     -0.789189
     48 O8         -0.0860   -2.9390   -1.9120 o         1 MOL     -0.789189
     49 H21         1.6550   -2.5500    2.1380 hn        1 MOL      0.284857
     50 H22         2.4570   -1.3300    0.3410 h1        1 MOL      0.086087
     51 H23         1.2180   -0.8410   -1.2980 hc        1 MOL      0.099827
     52 H24        -0.3740   -0.8250   -0.3950 hc        1 MOL      0.099827
     53 N5          2.8730    0.8420    1.8800 n         1 MOL     -0.190445
     54 C17         3.7570   -0.1310    2.5020 c3        1 MOL      0.049123
     55 C18         4.8700    0.4860    3.2050 c         1 MOL      0.510541
     56 O9          4.8070    1.6100    3.7140 o         1 MOL     -0.578580
     57 H25         3.2190    1.7930    1.9020 hn        1 MOL      0.200912
     58 H26         4.1060   -0.7200    1.6560 h1        1 MOL      0.074296
     59 H27         3.1410   -0.6740    3.2140 h1        1 MOL      0.074296
     60 N6          6.0000   -0.0980    3.3850 n         1 MOL     -0.381037
     61 C19         6.4510   -1.3590    2.7730 c3        1 MOL     -0.016992
     62 C20         7.2130   -1.2040    1.4320 c         1 MOL      0.615026
     63 O10         7.6610   -0.1420    1.0570 o         1 MOL     -0.520889
     64 C21         7.2760   -2.1790    3.8230 c3        1 MOL     -0.032002
     65 C22         8.4050   -1.5120    4.6310 c         1 MOL      0.657359
     66 O11         8.4900   -0.2860    4.5200 o         1 MOL     -0.657133
     67 O12         9.1580   -2.2810    5.2880 o         1 MOL     -0.657133
     68 H28         6.6160    0.2740    4.0900 hn        1 MOL      0.316587
     69 H29         5.5670   -1.9440    2.5160 h1        1 MOL     -0.021796
     70 H30         7.6630   -3.1050    3.3940 hc        1 MOL     -0.018835
     71 H31         6.5250   -2.5480    4.5260 hc        1 MOL     -0.018835
     72 N7          7.2470   -2.3200    0.7100 n         1 MOL     -0.327288
     73 C23         8.0370   -2.3790   -0.5650 c3        1 MOL     -0.417846
     74 C24         7.4470   -1.4570   -1.6970 c         1 MOL      0.590566
     75 O13         8.1080   -1.3310   -2.7240 o         1 MOL     -0.561479
     76 H32         6.6440   -3.0900    0.9630 hn        1 MOL      0.252174
     77 H33         7.9910   -3.3830   -0.9740 h1        1 MOL      0.197814
     78 H34         9.0710   -2.1040   -0.3330 h1        1 MOL      0.197814
     79 N8          6.1980   -0.9530   -1.5930 n         1 MOL     -0.196519
     80 C25         5.5870    0.0350   -2.5170 c3        1 MOL     -0.219976
     81 C26         4.5600    0.9360   -1.8060 c         1 MOL      0.211583
     82 O14         3.4810    0.4720   -1.4370 o         1 MOL     -0.196975
     83 C27         4.9760   -0.6380   -3.7890 c3        1 MOL      0.159651
     84 C28         4.1420   -1.8510   -3.5670 c3        1 MOL     -0.045897
     85 O15         5.9730   -1.0360   -4.6810 oh        1 MOL     -0.669268
     86 H35         5.6260   -1.3720   -0.8840 hn        1 MOL      0.163267
     87 H36         6.3590    0.6890   -2.9230 h1        1 MOL      0.164734
     88 H37         4.3590    0.1070   -4.3070 h1        1 MOL      0.163897
     89 H38         6.7350   -1.4060   -4.2310 ho        1 MOL      0.436114
     90 H39         4.7720   -2.6420   -3.1600 hc        1 MOL      0.005379
     91 H40         3.4170   -1.5590   -2.8120 hc        1 MOL      0.005379
     92 H41         3.6540   -2.2500   -4.4590 hc        1 MOL      0.005379
     93 N9          4.8870    2.2030   -1.5640 n         1 MOL     -0.214705
     94 C29         3.9360    3.1630   -0.8520 c3        1 MOL     -0.349283
     95 C30         2.7330    3.6370   -1.6910 c         1 MOL      0.408236
     96 O16         2.1750    4.7200   -1.4470 o         1 MOL     -0.523833
     97 C31         4.7130    4.2790   -0.1240 c3        1 MOL      0.191218
     98 C32         5.1680    5.4410   -0.9230 c3        1 MOL      0.147685
     99 C33         5.8880    3.7380    0.7700 c3        1 MOL     -0.118821
    100 C34         5.3840    6.7930   -0.1610 c3        1 MOL     -0.195103
    101 H42         5.7270    2.6000   -1.9630 hn        1 MOL      0.279195
    102 H43         3.4150    2.6250   -0.0610 h1        1 MOL      0.247257
    103 H44         3.9770    4.6180    0.6080 hc        1 MOL      0.005883
    104 H45         4.5150    5.6270   -1.7780 hc        1 MOL     -0.032249
    105 H46         6.1370    5.1680   -1.3170 hc        1 MOL     -0.032249
    106 H47         6.4190    4.5830    1.1980 hc        1 MOL      0.027370
    107 H48         5.6320    3.0420    1.5640 hc        1 MOL      0.027370
    108 H49         6.5900    3.2070    0.1140 hc        1 MOL      0.027370
    109 H50         6.2110    7.2530   -0.7040 hc        1 MOL      0.043544
    110 H51         4.5320    7.4740   -0.1920 hc        1 MOL      0.043544
    111 H52         5.6510    6.6970    0.8900 hc        1 MOL      0.043544
    112 N10         2.3100    2.7920   -2.6220 n         1 MOL      0.049238
    113 C35         1.2240    3.0250   -3.5980 c3        1 MOL     -0.101630
    114 C36        -0.2420    2.9490   -3.0540 c         1 MOL      0.450149
    115 O17        -1.1430    3.5270   -3.6080 o         1 MOL     -0.527330
    116 C37         1.2880    2.0500   -4.7460 c3        1 MOL      0.276605
    117 C38         1.0380    0.5780   -4.4680 c3        1 MOL     -0.261336
    118 O18         2.6420    2.0150   -5.1210 oh        1 MOL     -0.668901
    119 H53         2.8480    1.9520   -2.7650 hn        1 MOL      0.035834
    120 H54         1.3100    4.0610   -3.9310 h1        1 MOL      0.101842
    121 H55         0.6660    2.3720   -5.5790 h1        1 MOL      0.037893
    122 H56         2.6950    1.5060   -5.9310 ho        1 MOL      0.403094
    123 H57         1.7050   -0.1070   -4.9980 hc        1 MOL      0.085751
    124 H58         1.1990    0.4390   -3.4020 hc        1 MOL      0.085751
    125 H59        -0.0200    0.4190   -4.6210 hc        1 MOL      0.085751
    126 N11        -0.4050    2.2500   -1.8790 n         1 MOL     -0.174195
    127 C39        -1.6840    2.1310   -1.1710 c3        1 MOL      0.148847
    128 C40        -2.6920    1.1640   -1.9210 c         1 MOL      0.342517
    129 O19        -2.4500    0.7090   -3.0200 o         1 MOL     -0.448207
    130 C41        -2.3690    3.4760   -0.7100 c3        1 MOL      0.455699
    131 C42        -1.4380    4.5540   -0.1780 c3        1 MOL     -0.168258
    132 O20        -3.2080    3.2570    0.3690 oh        1 MOL     -0.876426
    133 H60         0.3640    1.9150   -1.3140 hn        1 MOL     -0.022718
    134 H61        -1.5530    1.6410   -0.2060 h1        1 MOL     -0.118732
    135 H62        -2.9860    3.9000   -1.4960 h1        1 MOL     -0.036718
    136 H63        -3.6720    4.0820    0.5430 ho        1 MOL      0.464380
    137 H64        -0.9070    5.0300   -1.0060 hc        1 MOL      0.050950
    138 H65        -1.9740    5.3940    0.2630 hc        1 MOL      0.050950
    139 H66        -0.7450    4.0770    0.5290 hc        1 MOL      0.050950
    140 N12        -3.9120    1.1150   -1.3340 n         1 MOL     -0.325690
    141 C43        -5.1940    0.7990   -2.0410 c3        1 MOL      0.007130
    142 C44        -5.7230   -0.5980   -1.7750 c         1 MOL      0.571337
    143 O21        -6.6420   -1.0080   -2.4760 o         1 MOL     -0.628758
    144 C45        -6.1560    1.9300   -1.7740 c3        1 MOL      0.334623
    145 C46        -7.1610    2.0040   -2.9700 c3        1 MOL      0.030287
    146 C47        -7.8920    3.4330   -2.9690 c3        1 MOL     -0.091337
    147 C48        -8.5350    3.6770   -1.6280 c3        1 MOL      0.191982
    148 N13        -9.2200    4.9810   -1.4810 n4        1 MOL     -0.414188
    149 H67        -4.0730    1.5680   -0.4520 hn        1 MOL      0.240613
    150 H68        -4.9680    0.8190   -3.1100 h1        1 MOL      0.085276
    151 H69        -5.5790    2.8530   -1.7620 hc        1 MOL     -0.109749
    152 H70        -6.7380    1.7630   -0.8640 hc        1 MOL     -0.109749
    153 H71        -7.9140    1.2360   -2.8410 hc        1 MOL      0.015054
    154 H72        -6.6730    1.8460   -3.9290 hc        1 MOL      0.015054
    155 H73        -8.6320    3.4660   -3.7650 hc        1 MOL      0.025604
    156 H74        -7.1170    4.1850   -3.1180 hc        1 MOL      0.025604
    157 H75        -7.6530    3.6750   -0.9840 hx        1 MOL      0.044069
    158 H76        -9.2160    2.8910   -1.3170 hx        1 MOL      0.044069
    159 H77        -9.7340    5.0520   -0.6080 hn        1 MOL      0.310194
    160 H78        -8.5780    5.7470   -1.3280 hn        1 MOL      0.310194
    161 H79        -9.8210    5.1850   -2.2590 hn        1 MOL      0.310194
    162 N14        -5.1510   -1.3450   -0.8140 n         1 MOL     -0.293547
    163 C49        -5.5270   -2.7380   -0.7260 c3        1 MOL     -0.311285
    164 C50        -6.8560   -2.8340    0.1610 c         1 MOL      0.457278
    165 O22        -6.8810   -2.3530    1.2920 o         1 MOL     -0.455397
    166 C51        -4.2510   -3.5230   -0.2090 c3        1 MOL      0.407471
    167 C52        -3.1070   -3.3750   -1.1650 c3        1 MOL     -0.744443
    168 C53        -3.1130   -4.5740   -2.1000 c         1 MOL      1.131355
    169 O23        -4.1010   -4.8680   -2.7840 o         1 MOL     -0.843163
    170 O24        -2.1160   -5.3360   -2.0610 o         1 MOL     -0.843163
    171 H80        -4.3740   -0.9690   -0.3000 hn        1 MOL      0.109011
    172 H81        -5.7600   -3.1080   -1.7200 h1        1 MOL      0.260640
    173 H82        -4.5060   -4.5830   -0.0540 hc        1 MOL     -0.049493
    174 H83        -3.9030   -3.1770    0.7680 hc        1 MOL     -0.049493
    175 H84        -2.1770   -3.4190   -0.5920 hc        1 MOL      0.157951
    176 H85        -3.1520   -2.4610   -1.7540 hc        1 MOL      0.157951
    177 N15        -7.9110   -3.5760   -0.3030 n         1 MOL     -0.236412
    178 C54        -9.0760   -3.8370    0.4770 c3        1 MOL     -0.250324
    179 H86        -9.8660   -4.2210   -0.1680 h1        1 MOL      0.104254
    180 H87        -8.8430   -4.5760    1.2440 h1        1 MOL      0.104254
    181 H88        -9.4110   -2.9150    0.9500 h1        1 MOL      0.104254
    182 H89        -7.8700   -3.9310   -1.2450 hn        1 MOL      0.247716
    183 Ca1         0.5260   -5.5150   -1.9630 Ca        1 MOL      1.717991
    184 O25         2.6830   -4.7310   -3.3120 oh        1 MOL     -0.866417
    185 H90         3.5550   -4.8500   -2.9380 ho        1 MOL      0.433400
    186 H91         2.8490   -4.5230   -4.2390 ho        1 MOL      0.433400
    187 O26         0.2720   -5.4280   -4.6280 oh        1 MOL     -0.866417
    188 H92         1.0680   -5.4610   -5.1730 ho        1 MOL      0.433400
    189 H93        -0.4180   -5.1800   -5.2350 ho        1 MOL      0.433400
@<TRIPOS>BOND
     1    1    2 1   
     2    1    4 1   
     3    1    5 1   
     4    1    6 1   
     5    2    3 2   
     6    2    7 1   
     7    7    8 1   
     8    7   15 1   
     9    8    9 1   
    10    8   11 1   
    11    8   16 1   
    12    9   10 2   
    13    9   19 1   
    14   11   12 1   
    15   11   17 1   
    16   11   18 1   
    17   12   13 1   
    18   12   14 1   
    19   19   20 1   
    20   19   28 1   
    21   20   21 1   
    22   20   23 1   
    23   20   29 1   
    24   21   22 2   
    25   21   41 1   
    26   23   24 1   
    27   23   30 1   
    28   23   31 1   
    29   24   25 1   
    30   24   32 1   
    31   24   33 1   
    32   25   26 1   
    33   25   34 1   
    34   25   35 1   
    35   26   27 1   
    36   26   36 1   
    37   26   37 1   
    38   27   38 1   
    39   27   39 1   
    40   27   40 1   
    41   41   42 1   
    42   41   49 1   
    43   42   43 1   
    44   42   45 1   
    45   42   50 1   
    46   43   44 2   
    47   43   53 1   
    48   45   46 1   
    49   45   51 1   
    50   45   52 1   
    51   46   47 1   
    52   46   48 1   
    53   53   54 1   
    54   53   57 1   
    55   54   55 1   
    56   54   58 1   
    57   54   59 1   
    58   55   56 2   
    59   55   60 1   
    60   60   61 1   
    61   60   68 1   
    62   61   62 1   
    63   61   64 1   
    64   61   69 1   
    65   62   63 2   
    66   62   72 1   
    67   64   65 1   
    68   64   70 1   
    69   64   71 1   
    70   65   66 1   
    71   65   67 1   
    72   72   73 1   
    73   72   76 1   
    74   73   74 1   
    75   73   77 1   
    76   73   78 1   
    77   74   75 2   
    78   74   79 1   
    79   79   80 1   
    80   79   86 1   
    81   80   81 1   
    82   80   83 1   
    83   80   87 1   
    84   81   82 2   
    85   81   93 1   
    86   83   84 1   
    87   83   85 1   
    88   83   88 1   
    89   84   90 1   
    90   84   91 1   
    91   84   92 1   
    92   85   89 1   
    93   93   94 1   
    94   93  101 1   
    95   94   95 1   
    96   94   97 1   
    97   94  102 1   
    98   95   96 2   
    99   95  112 1   
   100   97   98 1   
   101   97   99 1   
   102   97  103 1   
   103   98  100 1   
   104   98  104 1   
   105   98  105 1   
   106   99  106 1   
   107   99  107 1   
   108   99  108 1   
   109  100  109 1   
   110  100  110 1   
   111  100  111 1   
   112  112  113 1   
   113  112  119 1   
   114  113  114 1   
   115  113  116 1   
   116  113  120 1   
   117  114  115 2   
   118  114  126 1   
   119  116  117 1   
   120  116  118 1   
   121  116  121 1   
   122  117  123 1   
   123  117  124 1   
   124  117  125 1   
   125  118  122 1   
   126  126  127 1   
   127  126  133 1   
   128  127  128 1   
   129  127  130 1   
   130  127  134 1   
   131  128  129 2   
   132  128  140 1   
   133  130  131 1   
   134  130  132 1   
   135  130  135 1   
   136  131  137 1   
   137  131  138 1   
   138  131  139 1   
   139  132  136 1   
   140  140  141 1   
   141  140  149 1   
   142  141  142 1   
   143  141  144 1   
   144  141  150 1   
   145  142  143 2   
   146  142  162 1   
   147  144  145 1   
   148  144  151 1   
   149  144  152 1   
   150  145  146 1   
   151  145  153 1   
   152  145  154 1   
   153  146  147 1   
   154  146  155 1   
   155  146  156 1   
   156  147  148 1   
   157  147  157 1   
   158  147  158 1   
   159  148  159 1   
   160  148  160 1   
   161  148  161 1   
   162  162  163 1   
   163  162  171 1   
   164  163  164 1   
   165  163  166 1   
   166  163  172 1   
   167  164  165 2   
   168  164  177 1   
   169  166  167 1   
   170  166  173 1   
   171  166  174 1   
   172  167  168 1   
   173  167  175 1   
   174  167  176 1   
   175  168  169 1   
   176  168  170 1   
   177  177  178 1   
   178  177  182 1   
   179  178  179 1   
   180  178  180 1   
   181  178  181 1   
   182  184  185 1   
   183  184  186 1   
   184  187  188 1   
   185  187  189 1   
@<TRIPOS>SUBSTRUCTURE
     1 MOL         1 TEMP              0 ****  ****    0 ROOT
