@<TRIPOS>MOLECULE
MOL
  189   185     1     0     0
SMALL
resp


@<TRIPOS>ATOM
      1 C1          4.9030    3.8720   -3.8040 c3        1 MOL     -0.321168
      2 C2          5.5260    3.1360   -2.6150 c         1 MOL      0.675950
      3 O1          4.8610    2.8840   -1.5720 o         1 MOL     -0.628474
      4 H1          4.0930    4.5110   -3.4510 hc        1 MOL      0.091555
      5 H2          5.6620    4.4840   -4.2920 hc        1 MOL      0.091555
      6 H3          4.5100    3.1460   -4.5160 hc        1 MOL      0.091555
      7 N1          6.8330    2.7900   -2.6370 n         1 MOL     -0.547152
      8 C3          7.4400    1.6530   -1.8920 c3        1 MOL      0.213167
      9 C4          6.4820    0.4580   -1.6470 c         1 MOL      0.503868
     10 O2          5.9880    0.2600   -0.5220 o         1 MOL     -0.530034
     11 C5          8.2100    2.1340   -0.6480 c3        1 MOL     -0.274283
     12 C6          7.5510    3.1580    0.3230 c         1 MOL      0.810261
     13 O3          6.6750    2.7510    1.1300 o         1 MOL     -0.729479
     14 O4          7.9630    4.3300    0.3260 o         1 MOL     -0.729479
     15 H4          7.4080    3.0760   -3.4350 hn        1 MOL      0.287959
     16 H5          8.0870    1.1210   -2.5870 h1        1 MOL     -0.010680
     17 H6          9.1530    2.5940   -0.9370 hc        1 MOL      0.049833
     18 H7          8.4430    1.2370   -0.0630 hc        1 MOL      0.049833
     19 N2          6.1400   -0.2680   -2.7230 n         1 MOL     -0.471486
     20 C7          5.2060   -1.4110   -2.8050 c3        1 MOL      0.171007
     21 C8          5.5540   -2.5850   -1.8870 c         1 MOL      0.317853
     22 O5          5.8160   -3.6840   -2.4620 o         1 MOL     -0.580246
     23 C9          3.7150   -0.9470   -2.7490 c3        1 MOL      0.147228
     24 C10         2.6490   -2.0980   -2.8670 c3        1 MOL     -0.038431
     25 C11         3.3520    0.1390   -3.8140 c3        1 MOL     -0.321407
     26 C12         2.7760   -2.9970   -4.1220 c3        1 MOL     -0.413760
     27 H8          6.4850    0.0070   -3.6330 hn        1 MOL      0.270104
     28 H9          5.3750   -1.8210   -3.8020 h1        1 MOL      0.043496
     29 H10         3.4720   -0.4920   -1.7800 hc        1 MOL     -0.135082
     30 H11         1.6770   -1.6090   -2.8240 hc        1 MOL      0.133721
     31 H12         2.7600   -2.7360   -1.9850 hc        1 MOL      0.133721
     32 H13         3.9990   -0.0100   -4.6860 hc        1 MOL      0.064722
     33 H14         2.2930    0.0480   -4.0580 hc        1 MOL      0.064722
     34 H15         3.6200    1.1500   -3.4930 hc        1 MOL      0.064722
     35 H16         3.1460   -2.4060   -4.9570 hc        1 MOL      0.090109
     36 H17         3.4070   -3.8940   -4.0510 hc        1 MOL      0.090109
     37 H18         1.7960   -3.4270   -4.3210 hc        1 MOL      0.090109
     38 N3          5.6350   -2.4620   -0.5770 n         1 MOL      0.048000
     39 C13         6.5050   -3.3060    0.2460 c3        1 MOL     -0.031670
     40 C14         5.7790   -4.5470    0.8450 c         1 MOL      0.551491
     41 O6          6.4320   -5.5700    1.0020 o         1 MOL     -0.554229
     42 C15         7.1460   -2.4640    1.2840 c3        1 MOL     -0.184484
     43 C16         8.1640   -3.1390    2.1210 c         1 MOL      0.750858
     44 O7          7.8350   -3.5630    3.2420 o         1 MOL     -0.746663
     45 O8          9.3010   -3.1060    1.6730 o         1 MOL     -0.746663
     46 H19         5.6120   -1.4690   -0.3480 hn        1 MOL      0.104676
     47 H20         7.3560   -3.6590   -0.3320 h1        1 MOL      0.054610
     48 H21         6.3230   -2.1170    1.9020 hc        1 MOL      0.064074
     49 H22         7.6700   -1.5800    0.9210 hc        1 MOL      0.064074
     50 N4          4.5400   -4.6070    1.2790 n         1 MOL     -0.563693
     51 C17         3.6660   -3.4380    1.4710 c3        1 MOL      0.175268
     52 C18         2.3410   -3.8390    2.2470 c         1 MOL      0.661189
     53 O9          1.9410   -5.0010    2.1190 o         1 MOL     -0.586502
     54 H23         4.2790   -5.3740    1.8830 hn        1 MOL      0.319985
     55 H24         3.4210   -3.0410    0.4910 h1        1 MOL     -0.022683
     56 H25         4.2680   -2.6630    1.9410 h1        1 MOL     -0.022683
     57 N5          1.6410   -3.0070    3.0980 n         1 MOL     -0.736806
     58 C19         1.8100   -1.6120    3.3050 c3        1 MOL      0.331269
     59 C20         2.2490   -0.9090    2.0200 c         1 MOL      0.348297
     60 O10         3.3320   -0.4220    1.9320 o         1 MOL     -0.652284
     61 C21         2.8780   -1.5370    4.4540 c3        1 MOL     -0.374881
     62 C22         3.1040   -0.1210    4.9690 c         1 MOL      0.784533
     63 O11         4.2640    0.1470    5.3150 o         1 MOL     -0.714142
     64 O12         2.2470    0.7320    4.9880 o         1 MOL     -0.714142
     65 H26         0.9740   -3.4710    3.7120 hn        1 MOL      0.344051
     66 H27         0.8920   -1.1510    3.6610 h1        1 MOL      0.021276
     67 H28         3.7900   -1.9700    4.0310 hc        1 MOL      0.111072
     68 H29         2.4530   -2.1070    5.2750 hc        1 MOL      0.111072
     69 N6          1.4740   -0.8660    0.9320 n         1 MOL      0.074100
     70 C23         0.0800   -1.2500    0.8050 c3        1 MOL     -0.313504
     71 C24        -0.2010   -2.6160    0.2250 c         1 MOL      0.599789
     72 O13         0.5020   -3.0330   -0.7760 o         1 MOL     -0.533239
     73 H30         1.9000   -0.4250    0.1310 hn        1 MOL      0.130668
     74 H31        -0.4470   -0.4400    0.3100 h1        1 MOL      0.107548
     75 H32        -0.3270   -1.1760    1.8100 h1        1 MOL      0.107548
     76 N7         -1.3930   -3.1890    0.6100 n         1 MOL     -0.505800
     77 C25        -1.9100   -4.4230    0.0620 c3        1 MOL     -0.025446
     78 C26        -2.6400   -4.1950   -1.2840 c         1 MOL      0.318660
     79 O14        -2.7580   -5.2080   -2.0140 o         1 MOL     -0.515163
     80 C27        -2.8150   -5.1500    1.1300 c3        1 MOL     -0.021062
     81 C28        -3.9900   -4.3460    1.6940 c3        1 MOL     -0.171809
     82 C29        -4.9780   -3.9820    0.6060 c         1 MOL      0.466418
     83 N8         -5.7900   -4.9190    0.1350 n         1 MOL     -0.676162
     84 O15        -5.0300   -2.8090    0.3280 o         1 MOL     -0.519577
     85 H33        -2.0120   -2.7500    1.2710 hn        1 MOL      0.316626
     86 H34        -1.0590   -5.1070   -0.0020 h1        1 MOL      0.168400
     87 H35        -2.2040   -5.4060    2.0000 hc        1 MOL      0.046206
     88 H36        -3.2250   -6.0230    0.6270 hc        1 MOL      0.046206
     89 H37        -3.6610   -3.4130    2.1460 hc        1 MOL      0.070909
     90 H38        -4.4520   -5.0050    2.4170 hc        1 MOL      0.070909
     91 H39        -5.8270   -5.8580    0.4940 hn        1 MOL      0.355641
     92 H40        -6.5240   -4.6520   -0.5180 hn        1 MOL      0.355641
     93 N9         -3.0070   -2.9900   -1.7360 n         1 MOL     -0.070847
     94 C30        -3.4880   -2.6130   -3.0750 c3        1 MOL     -0.092489
     95 C31        -4.7730   -1.8260   -3.2170 c         1 MOL      0.318755
     96 O16        -5.1420   -1.4330   -4.3020 o         1 MOL     -0.515814
     97 C32        -2.3870   -1.8460   -3.8630 c3        1 MOL      0.125473
     98 C33        -1.1010   -2.6720   -4.1270 c3        1 MOL     -0.164269
     99 C34        -1.9210   -0.5580   -3.1620 c3        1 MOL     -0.164269
    100 H41        -2.8870   -2.2320   -1.0750 hn        1 MOL      0.174694
    101 H42        -3.7610   -3.5540   -3.5580 h1        1 MOL      0.106342
    102 H43        -2.7400   -1.5280   -4.8450 hc        1 MOL      0.021814
    103 H44        -0.4180   -1.9320   -4.5510 hc        1 MOL      0.040202
    104 H45        -0.6330   -3.0820   -3.2370 hc        1 MOL      0.040202
    105 H46        -1.2490   -3.4440   -4.8750 hc        1 MOL      0.040202
    106 H47        -1.4930   -0.8050   -2.1910 hc        1 MOL      0.040202
    107 H48        -1.1690    0.0150   -3.7130 hc        1 MOL      0.040202
    108 H49        -2.7760    0.0840   -2.9420 hc        1 MOL      0.040202
    109 N10        -5.4590   -1.5150   -2.0990 n         1 MOL     -0.092265
    110 C35        -6.8200   -0.9640   -2.0240 c3        1 MOL     -0.010830
    111 C36        -6.9630    0.4530   -1.3150 c         1 MOL      0.411370
    112 O17        -7.9920    1.2020   -1.3730 o         1 MOL     -0.542433
    113 C37        -7.7930   -2.0110   -1.4370 c3        1 MOL     -0.141213
    114 C38        -7.9180   -3.3310   -2.1620 c         1 MOL      0.611616
    115 N11        -7.9530   -3.4310   -3.4710 n         1 MOL     -0.704899
    116 O18        -8.0660   -4.3990   -1.5510 o         1 MOL     -0.593357
    117 H50        -5.1020   -1.8830   -1.2370 hn        1 MOL      0.210207
    118 H51        -7.1290   -0.9100   -3.0770 h1        1 MOL      0.063905
    119 H52        -8.8110   -1.6350   -1.4440 hc        1 MOL      0.062503
    120 H53        -7.5410   -2.2980   -0.4050 hc        1 MOL      0.062503
    121 H54        -7.8980   -2.7100   -4.1750 hn        1 MOL      0.347817
    122 H55        -8.2000   -4.3420   -3.8120 hn        1 MOL      0.347817
    123 N12        -5.8560    0.9020   -0.7510 n         1 MOL     -0.251542
    124 C39        -5.8110    2.0870    0.1190 c3        1 MOL      0.062265
    125 C40        -4.4540    2.8700   -0.0230 c         1 MOL      0.368639
    126 O19        -3.4180    2.2200   -0.1190 o         1 MOL     -0.378888
    127 C41        -5.9710    1.6650    1.5990 c3        1 MOL      0.059939
    128 C42        -7.2860    0.8980    2.0250 ca        1 MOL      0.051871
    129 C43        -7.2990   -0.4860    2.1860 ca        1 MOL     -0.147345
    130 C44        -8.3860    1.6290    2.4170 ca        1 MOL     -0.147345
    131 C45        -8.4510   -1.1460    2.6850 ca        1 MOL     -0.226653
    132 C46        -9.5390    1.0140    3.0230 ca        1 MOL     -0.226653
    133 C47        -9.5610   -0.4150    3.1840 ca        1 MOL      0.280485
    134 O20       -10.6280   -1.0590    3.8070 oh        1 MOL     -0.531529
    135 H56        -5.0250    0.3540   -0.9210 hn        1 MOL      0.125274
    136 H57        -6.6520    2.7550   -0.0810 h1        1 MOL      0.048440
    137 H58        -5.8180    2.5120    2.2550 hc        1 MOL      0.035614
    138 H59        -5.1810    0.9460    1.8070 hc        1 MOL      0.035614
    139 H60        -6.4080   -0.9850    1.8230 ha        1 MOL      0.134667
    140 H61        -8.4290    2.7040    2.3670 ha        1 MOL      0.134667
    141 H62        -8.5240   -2.2220    2.7240 ha        1 MOL      0.132175
    142 H63       -10.3860    1.5390    3.4250 ha        1 MOL      0.132175
    143 H64       -10.5810   -1.9880    4.0100 ho        1 MOL      0.382471
    144 N13        -4.5170    4.1950    0.2580 n         1 MOL     -0.536089
    145 C48        -3.4150    5.1520    0.6570 c3        1 MOL      0.135761
    146 C49        -2.1210    5.2580   -0.1880 c         1 MOL      0.291093
    147 O21        -1.3320    6.1910    0.0530 o         1 MOL     -0.485377
    148 C50        -3.0380    4.9090    2.1130 c3        1 MOL      0.068832
    149 C51        -4.1550    4.9240    3.2090 c3        1 MOL     -0.273574
    150 C52        -3.5860    4.5340    4.6370 c         1 MOL      0.755311
    151 O22        -3.6360    5.4120    5.4660 o         1 MOL     -0.725884
    152 O23        -3.3200    3.3600    4.9120 o         1 MOL     -0.725884
    153 H65        -5.4360    4.6030    0.1130 hn        1 MOL      0.309090
    154 H66        -3.8740    6.1410    0.6210 h1        1 MOL      0.047745
    155 H67        -2.2310    5.6180    2.3080 hc        1 MOL      0.030387
    156 H68        -2.5220    3.9510    2.1350 hc        1 MOL      0.030387
    157 H69        -4.9610    4.2880    2.8450 hc        1 MOL      0.018586
    158 H70        -4.5520    5.9410    3.2000 hc        1 MOL      0.018586
    159 N14        -1.8490    4.3450   -1.1310 n         1 MOL     -0.160751
    160 C53        -0.5820    4.2340   -1.9340 c3        1 MOL     -0.217901
    161 C54        -0.5160    5.1120   -3.2050 c         1 MOL      0.475741
    162 O24         0.5110    5.2880   -3.8760 o         1 MOL     -0.526743
    163 C55        -0.2550    2.7620   -2.2740 c3        1 MOL     -0.044845
    164 C56        -0.1130    1.8710   -1.0270 c3        1 MOL      0.434711
    165 C57         1.1750    2.2570   -0.2620 c         1 MOL      0.241951
    166 O25         1.1510    3.1980    0.5480 o         1 MOL     -0.484053
    167 O26         2.2330    1.5970   -0.4750 o         1 MOL     -0.484053
    168 H71        -2.3810    3.4960   -1.2360 hn        1 MOL      0.195109
    169 H72         0.2040    4.6480   -1.2990 h1        1 MOL      0.165821
    170 H73         0.6730    2.6130   -2.8300 hc        1 MOL      0.018111
    171 H74        -1.1040    2.3790   -2.8350 hc        1 MOL      0.018111
    172 H75        -0.0100    0.8120   -1.2960 hc        1 MOL     -0.135830
    173 H76        -1.0030    1.7870   -0.4070 hc        1 MOL     -0.135830
    174 N15        -1.7530    5.4750   -3.6340 n         1 MOL     -0.174175
    175 C58        -2.2200    6.3540   -4.6640 c3        1 MOL     -0.246350
    176 H77        -3.1060    6.8850   -4.3140 h1        1 MOL      0.095738
    177 H78        -1.4390    7.0740   -4.9090 h1        1 MOL      0.095738
    178 H79        -2.4710    5.7730   -5.5520 h1        1 MOL      0.095738
    179 H80        -2.4440    5.2980   -2.9150 hn        1 MOL      0.162949
    180 Ca1         4.2770    1.9560    0.9660 Ca        1 MOL      1.721036
    181 O27         2.8310    2.4350    3.1310 oh        1 MOL     -0.882324
    182 H81         3.2450    3.1470    3.6060 ho        1 MOL      0.421054
    183 H82         2.5250    1.8300    3.8000 ho        1 MOL      0.421054
    184 O28         5.5460    0.7960    2.9750 oh        1 MOL     -0.882324
    185 H83         5.0460    0.4670    3.7140 ho        1 MOL      0.421054
    186 H84         6.4580    0.5770    3.1840 ho        1 MOL      0.421054
    187 O29         4.1790    4.7600    0.6940 oh        1 MOL     -0.882324
    188 H85         4.8160    5.1140    0.0790 ho        1 MOL      0.421054
    189 H86         3.3400    5.0970    0.3930 ho        1 MOL      0.421054
@<TRIPOS>BOND
     1    1    2 1   
     2    1    4 1   
     3    1    5 1   
     4    1    6 1   
     5    2    3 2   
     6    2    7 1   
     7    7    8 1   
     8    7   15 1   
     9    8    9 1   
    10    8   11 1   
    11    8   16 1   
    12    9   10 2   
    13    9   19 1   
    14   11   12 1   
    15   11   17 1   
    16   11   18 1   
    17   12   13 1   
    18   12   14 1   
    19   19   20 1   
    20   19   27 1   
    21   20   21 1   
    22   20   23 1   
    23   20   28 1   
    24   21   22 2   
    25   21   38 1   
    26   23   24 1   
    27   23   25 1   
    28   23   29 1   
    29   24   26 1   
    30   24   30 1   
    31   24   31 1   
    32   25   32 1   
    33   25   33 1   
    34   25   34 1   
    35   26   35 1   
    36   26   36 1   
    37   26   37 1   
    38   38   39 1   
    39   38   46 1   
    40   39   40 1   
    41   39   42 1   
    42   39   47 1   
    43   40   41 2   
    44   40   50 1   
    45   42   43 1   
    46   42   48 1   
    47   42   49 1   
    48   43   44 1   
    49   43   45 1   
    50   50   51 1   
    51   50   54 1   
    52   51   52 1   
    53   51   55 1   
    54   51   56 1   
    55   52   53 2   
    56   52   57 1   
    57   57   58 1   
    58   57   65 1   
    59   58   59 1   
    60   58   61 1   
    61   58   66 1   
    62   59   60 2   
    63   59   69 1   
    64   61   62 1   
    65   61   67 1   
    66   61   68 1   
    67   62   63 1   
    68   62   64 1   
    69   69   70 1   
    70   69   73 1   
    71   70   71 1   
    72   70   74 1   
    73   70   75 1   
    74   71   72 2   
    75   71   76 1   
    76   76   77 1   
    77   76   85 1   
    78   77   78 1   
    79   77   80 1   
    80   77   86 1   
    81   78   79 2   
    82   78   93 1   
    83   80   81 1   
    84   80   87 1   
    85   80   88 1   
    86   81   82 1   
    87   81   89 1   
    88   81   90 1   
    89   82   83 1   
    90   82   84 2   
    91   83   91 1   
    92   83   92 1   
    93   93   94 1   
    94   93  100 1   
    95   94   95 1   
    96   94   97 1   
    97   94  101 1   
    98   95   96 2   
    99   95  109 1   
   100   97   98 1   
   101   97   99 1   
   102   97  102 1   
   103   98  103 1   
   104   98  104 1   
   105   98  105 1   
   106   99  106 1   
   107   99  107 1   
   108   99  108 1   
   109  109  110 1   
   110  109  117 1   
   111  110  111 1   
   112  110  113 1   
   113  110  118 1   
   114  111  112 2   
   115  111  123 1   
   116  113  114 1   
   117  113  119 1   
   118  113  120 1   
   119  114  115 1   
   120  114  116 2   
   121  115  121 1   
   122  115  122 1   
   123  123  124 1   
   124  123  135 1   
   125  124  125 1   
   126  124  127 1   
   127  124  136 1   
   128  125  126 2   
   129  125  144 1   
   130  127  128 1   
   131  127  137 1   
   132  127  138 1   
   133  128  129 ar  
   134  128  130 ar  
   135  129  131 ar  
   136  129  139 1   
   137  130  132 ar  
   138  130  140 1   
   139  131  133 ar  
   140  131  141 1   
   141  132  133 ar  
   142  132  142 1   
   143  133  134 1   
   144  134  143 1   
   145  144  145 1   
   146  144  153 1   
   147  145  146 1   
   148  145  148 1   
   149  145  154 1   
   150  146  147 2   
   151  146  159 1   
   152  148  149 1   
   153  148  155 1   
   154  148  156 1   
   155  149  150 1   
   156  149  157 1   
   157  149  158 1   
   158  150  151 1   
   159  150  152 1   
   160  159  160 1   
   161  159  168 1   
   162  160  161 1   
   163  160  163 1   
   164  160  169 1   
   165  161  162 2   
   166  161  174 1   
   167  163  164 1   
   168  163  170 1   
   169  163  171 1   
   170  164  165 1   
   171  164  172 1   
   172  164  173 1   
   173  165  166 1   
   174  165  167 1   
   175  174  175 1   
   176  174  179 1   
   177  175  176 1   
   178  175  177 1   
   179  175  178 1   
   180  181  182 1   
   181  181  183 1   
   182  184  185 1   
   183  184  186 1   
   184  187  188 1   
   185  187  189 1   
@<TRIPOS>SUBSTRUCTURE
     1 MOL         1 TEMP              0 ****  ****    0 ROOT
