@<TRIPOS>MOLECULE
MOL
  182   178     1     0     0
SMALL
resp


@<TRIPOS>ATOM
      1 C1         -5.4100    2.5620   -1.5110 c3        1 MOL     -0.274538
      2 C2         -6.6260    1.9720   -0.7710 c         1 MOL      0.690920
      3 O1         -6.4180    1.2590    0.2670 o         1 MOL     -0.560298
      4 H1         -4.6890    2.9360   -0.7830 hc        1 MOL      0.056136
      5 H2         -4.9430    1.7880   -2.1200 hc        1 MOL      0.056136
      6 H3         -5.7370    3.3810   -2.1520 hc        1 MOL      0.056136
      7 N1         -7.8400    2.2700   -1.2140 n         1 MOL     -0.539805
      8 C3         -9.0670    1.9900   -0.4320 c3        1 MOL      0.123751
      9 C4         -9.3680    0.5300    0.1200 c         1 MOL      0.439728
     10 O2        -10.0130    0.3590    1.1470 o         1 MOL     -0.508850
     11 C5         -9.1670    3.0470    0.7520 c3        1 MOL     -0.230176
     12 C6         -9.3250    4.4420    0.4140 c         1 MOL      0.758599
     13 O3         -8.9910    5.3630    1.2250 o         1 MOL     -0.679421
     14 O4         -9.7720    4.7580   -0.6850 o         1 MOL     -0.679421
     15 H4         -7.9280    2.6680   -2.1310 hn        1 MOL      0.320648
     16 H5         -9.9380    2.1640   -1.0770 h1        1 MOL      0.018560
     17 H6         -8.2830    2.8620    1.3500 hc        1 MOL      0.081028
     18 H7        -10.0680    2.8890    1.3410 hc        1 MOL      0.081028
     19 N2         -8.8090   -0.5870   -0.4770 n         1 MOL     -0.213955
     20 C7         -8.8730   -2.0380   -0.0110 c3        1 MOL      0.172505
     21 C8         -7.4810   -2.5360    0.5160 c         1 MOL      0.534686
     22 O5         -7.4620   -3.1190    1.5970 o         1 MOL     -0.538589
     23 C9         -9.4600   -2.8450   -1.1490 c3        1 MOL     -0.305313
     24 C10       -10.9140   -2.4850   -1.5320 c3        1 MOL      0.283871
     25 C11       -11.9350   -3.2270   -0.5810 c3        1 MOL     -0.120564
     26 C12       -13.3270   -2.6260   -0.8290 c3        1 MOL     -0.027569
     27 N3        -13.9550   -3.0150   -2.0970 n4        1 MOL     -0.241251
     28 H8         -8.3320   -0.3590   -1.3330 hn        1 MOL      0.112363
     29 H9         -9.6110   -2.0850    0.7990 h1        1 MOL      0.043441
     30 H10        -9.4270   -3.9190   -0.9550 hc        1 MOL      0.064706
     31 H11        -8.7460   -2.6470   -1.9410 hc        1 MOL      0.064706
     32 H12       -11.0590   -2.9160   -2.5180 hc        1 MOL     -0.069464
     33 H13       -11.0410   -1.4010   -1.6050 hc        1 MOL     -0.069464
     34 H14       -11.6110   -3.0500    0.4380 hc        1 MOL      0.071031
     35 H15       -11.8140   -4.3070   -0.6770 hc        1 MOL      0.071031
     36 H16       -13.2840   -1.5360   -0.7180 hx        1 MOL      0.098419
     37 H17       -13.9880   -2.9350   -0.0210 hx        1 MOL      0.098419
     38 H18       -13.2650   -2.8150   -2.8030 hn        1 MOL      0.243922
     39 H19       -14.2130   -3.9960   -2.1380 hn        1 MOL      0.243922
     40 H20       -14.8220   -2.5060   -2.2020 hn        1 MOL      0.243922
     41 N4         -6.3990   -2.3960   -0.1960 n         1 MOL     -0.497286
     42 C13        -5.0780   -2.5300    0.3520 c3        1 MOL      0.072355
     43 C14        -4.8260   -2.3220    1.8590 c         1 MOL      0.507711
     44 O6         -5.2090   -1.3600    2.4780 o         1 MOL     -0.447322
     45 C15        -4.2190   -1.6030   -0.5400 c3        1 MOL     -0.155398
     46 C16        -2.7130   -1.9250   -0.7140 c         1 MOL      0.637300
     47 O7         -2.1350   -2.6590    0.1600 o         1 MOL     -0.705649
     48 O8         -2.0330   -1.6250   -1.7460 o         1 MOL     -0.705649
     49 H21        -6.5210   -2.0250   -1.1280 hn        1 MOL      0.302997
     50 H22        -4.8200   -3.5550    0.0910 h1        1 MOL      0.034311
     51 H23        -4.3400   -0.6140   -0.1060 hc        1 MOL      0.045150
     52 H24        -4.6680   -1.6430   -1.5320 hc        1 MOL      0.045150
     53 N5         -4.2810   -3.3040    2.5350 n         1 MOL     -0.309459
     54 C17        -3.9400   -3.1750    3.9330 c3        1 MOL     -0.099239
     55 C18        -2.5210   -2.5920    4.2000 c         1 MOL      0.445026
     56 O9         -2.0830   -2.5080    5.3410 o         1 MOL     -0.515890
     57 H25        -3.9990   -4.1550    2.0600 hn        1 MOL      0.235683
     58 H26        -3.9860   -4.1300    4.4520 h1        1 MOL      0.102622
     59 H27        -4.6810   -2.4930    4.3410 h1        1 MOL      0.102622
     60 N6         -1.6840   -2.4180    3.1240 n         1 MOL     -0.325491
     61 C19        -0.4250   -1.6290    3.0060 c3        1 MOL      0.181539
     62 C20        -0.3360   -0.7300    1.7350 c         1 MOL      0.487383
     63 O10         0.5730   -0.8540    0.9350 o         1 MOL     -0.451676
     64 C21         0.7280   -2.5070    3.1680 c3        1 MOL     -0.482854
     65 C22         0.7580   -3.7400    2.1900 c         1 MOL      0.700805
     66 N7          1.3700   -4.8010    2.6020 n         1 MOL     -0.729844
     67 O11         0.2820   -3.7360    1.0760 o         1 MOL     -0.665566
     68 H28        -1.9890   -2.7610    2.2210 hn        1 MOL      0.250354
     69 H29        -0.4200   -0.9430    3.8570 h1        1 MOL      0.075114
     70 H30         0.6550   -2.7320    4.2340 hc        1 MOL      0.156387
     71 H31         1.6740   -2.0020    2.9650 hc        1 MOL      0.156387
     72 H32         1.7530   -4.8820    3.5290 hn        1 MOL      0.358972
     73 H33         1.1600   -5.6270    2.0610 hn        1 MOL      0.358972
     74 N8         -1.3650    0.1470    1.5890 n         1 MOL     -0.569701
     75 C23        -1.3580    1.2300    0.5900 c3        1 MOL      0.199580
     76 C24        -0.2000    2.1790    0.7140 c         1 MOL      0.568705
     77 O12         0.3260    2.3900    1.8010 o         1 MOL     -0.512064
     78 H34        -2.1270    0.0350    2.2490 hn        1 MOL      0.310095
     79 H35        -2.3190    1.7450    0.5920 h1        1 MOL      0.039486
     80 H36        -1.2470    0.8570   -0.4360 h1        1 MOL      0.039486
     81 N9          0.1580    2.9280   -0.3750 n         1 MOL     -0.658788
     82 C25         1.3810    3.7100   -0.3680 c3        1 MOL      0.458414
     83 C26         2.6730    2.8790   -0.5660 c         1 MOL      0.342052
     84 O13         2.6100    1.6350   -0.7030 o         1 MOL     -0.445401
     85 C27         1.1340    4.9420   -1.4250 c3        1 MOL     -0.023792
     86 C28        -0.2110    5.6420   -1.3390 ca        1 MOL     -0.143896
     87 C29        -0.3550    6.5660   -0.2530 ca        1 MOL     -0.012123
     88 C30        -1.1880    5.6200   -2.3450 ca        1 MOL     -0.012123
     89 C31        -1.5550    7.2520   -0.0510 ca        1 MOL     -0.352045
     90 C32        -2.3170    6.4560   -2.2180 ca        1 MOL     -0.352045
     91 C33        -2.5900    7.1340   -1.0110 ca        1 MOL      0.420513
     92 O14        -3.6130    7.9680   -0.9110 oh        1 MOL     -0.436728
     93 H37        -0.4200    2.9550   -1.1960 hn        1 MOL      0.284413
     94 H38         1.5210    4.3000    0.5410 h1        1 MOL     -0.007389
     95 H39         1.3620    4.4860   -2.3830 hc        1 MOL     -0.002839
     96 H40         1.9550    5.6270   -1.2310 hc        1 MOL     -0.002839
     97 H41         0.4830    6.6210    0.4350 ha        1 MOL      0.099945
     98 H42        -0.9880    5.2690   -3.3460 ha        1 MOL      0.099945
     99 H43        -1.8010    7.8400    0.8220 ha        1 MOL      0.173059
    100 H44        -2.9770    6.7170   -3.0290 ha        1 MOL      0.173059
    101 H45        -4.1560    7.9840   -1.6990 ho        1 MOL      0.348572
    102 N10         3.8670    3.5340   -0.7310 n         1 MOL     -0.464493
    103 C34         5.0800    2.8220   -1.1080 c3        1 MOL      0.065818
    104 C35         5.7360    2.0880    0.1480 c         1 MOL      0.332991
    105 O15         6.0250    0.9030    0.1560 o         1 MOL     -0.341727
    106 C36         6.1200    3.7010   -1.9330 c3        1 MOL      0.027303
    107 C37         5.6110    4.1560   -3.3260 c3        1 MOL      0.040407
    108 C38         7.4420    2.9470   -2.0560 c3        1 MOL     -0.518126
    109 C39         4.3060    4.9420   -3.2030 c3        1 MOL     -0.095321
    110 H46         3.8710    4.5510   -0.7700 hn        1 MOL      0.262861
    111 H47         4.7460    1.9950   -1.7380 h1        1 MOL      0.075468
    112 H48         6.2810    4.6410   -1.4160 hc        1 MOL      0.025862
    113 H49         5.3950    3.3710   -4.0530 hc        1 MOL      0.029995
    114 H50         6.3550    4.7680   -3.8380 hc        1 MOL      0.029995
    115 H51         7.1350    2.0060   -2.5180 hc        1 MOL      0.143852
    116 H52         8.1040    3.4600   -2.7490 hc        1 MOL      0.143852
    117 H53         7.9610    2.8280   -1.1020 hc        1 MOL      0.143852
    118 H54         3.4610    4.2980   -2.9550 hc        1 MOL      0.021629
    119 H55         4.4460    5.5700   -2.3120 hc        1 MOL      0.021629
    120 H56         4.0630    5.5280   -4.0920 hc        1 MOL      0.021629
    121 N11         5.7310    2.8590    1.2770 n         1 MOL     -0.104676
    122 C40         5.9650    2.3700    2.6290 c3        1 MOL     -0.212107
    123 C41         7.3800    1.7480    2.9480 c         1 MOL      0.300627
    124 O16         7.5190    0.9340    3.8580 o         1 MOL     -0.463935
    125 C42         5.8290    3.5940    3.5940 c3        1 MOL      0.338456
    126 O17         4.4580    3.9010    3.5910 oh        1 MOL     -0.550850
    127 H57         5.5480    3.8490    1.1680 hn        1 MOL      0.163094
    128 H58         5.1900    1.6320    2.7650 h1        1 MOL      0.178349
    129 H59         6.4560    4.4340    3.2900 h1        1 MOL      0.009697
    130 H60         6.2440    3.3290    4.5620 h1        1 MOL      0.009697
    131 H61         4.2940    4.0880    2.6550 ho        1 MOL      0.318321
    132 N12         8.3710    2.0830    2.1040 n         1 MOL     -0.279237
    133 C43         9.6490    1.3860    1.9430 c3        1 MOL      0.322045
    134 C44         9.6180   -0.1030    1.5640 c         1 MOL      0.385420
    135 O18        10.6650   -0.6810    1.6750 o         1 MOL     -0.495045
    136 C45        10.4690    1.8250    3.1150 c3        1 MOL     -0.230185
    137 H62         8.0820    2.7710    1.4140 hn        1 MOL      0.155917
    138 H63        10.1070    1.9540    1.1300 h1        1 MOL      0.017093
    139 H64        10.2880    2.8950    3.2630 hc        1 MOL      0.059750
    140 H65        10.3140    1.1470    3.9540 hc        1 MOL      0.059750
    141 H66        11.5250    1.6770    2.8940 hc        1 MOL      0.059750
    142 N13         8.4390   -0.6400    1.1720 n         1 MOL     -0.624735
    143 C46         8.2460   -2.1090    0.9380 c3        1 MOL      0.863946
    144 C47         7.7000   -2.3950   -0.4950 c         1 MOL      0.099288
    145 O19         7.3190   -1.5420   -1.2730 o         1 MOL     -0.426742
    146 C48         7.2070   -2.5480    2.0210 c3        1 MOL     -0.362514
    147 H67         7.6220   -0.0710    1.0230 hn        1 MOL      0.235401
    148 H68         9.1830   -2.6450    1.0950 h1        1 MOL     -0.119729
    149 H69         6.1970   -2.2200    1.7640 hc        1 MOL      0.090268
    150 H70         7.2690   -3.6450    2.0240 hc        1 MOL      0.090268
    151 H71         7.5110   -2.1840    3.0060 hc        1 MOL      0.090268
    152 N14         7.4690   -3.6960   -0.7810 n         1 MOL     -0.409855
    153 C49         6.8780   -4.2780   -1.9980 c3        1 MOL     -0.064897
    154 C50         7.7250   -4.2570   -3.2900 c         1 MOL      0.460155
    155 O20         7.8910   -5.3430   -3.8370 o         1 MOL     -0.503216
    156 C51         5.3220   -4.0590   -2.1490 c3        1 MOL     -0.026465
    157 C52         4.4510   -4.3310   -0.9090 c3        1 MOL      0.020087
    158 C53         3.0830   -3.7290   -1.2300 c         1 MOL      0.567062
    159 O21         2.1840   -4.4040   -1.7630 o         1 MOL     -0.716448
    160 O22         2.8060   -2.5230   -1.0300 o         1 MOL     -0.716448
    161 H72         7.6240   -4.3610   -0.0410 hn        1 MOL      0.291448
    162 H73         6.9790   -5.3410   -1.7700 h1        1 MOL      0.077148
    163 H74         4.9720   -4.7440   -2.9190 hc        1 MOL      0.048634
    164 H75         5.2750   -3.0250   -2.4640 hc        1 MOL      0.048634
    165 H76         4.8960   -3.6880   -0.1560 hc        1 MOL     -0.002032
    166 H77         4.5570   -5.3360   -0.5060 hc        1 MOL     -0.002032
    167 N15         8.2540   -3.0930   -3.7600 n         1 MOL     -0.282370
    168 C54         8.8250   -2.9520   -5.1470 c3        1 MOL     -0.195255
    169 H78         8.1520   -3.4180   -5.8660 h1        1 MOL      0.096823
    170 H79         8.9380   -1.8950   -5.3880 h1        1 MOL      0.096823
    171 H80         9.7980   -3.4410   -5.1900 h1        1 MOL      0.096823
    172 H81         7.9950   -2.2300   -3.3180 hn        1 MOL      0.286993
    173 Ca1         0.2880   -2.7170   -1.2140 Ca        1 MOL      1.740974
    174 O23         0.5000   -2.2930   -3.9310 oh        1 MOL     -0.810847
    175 H82         0.0990   -1.9500   -4.7220 ho        1 MOL      0.402138
    176 H83         1.3790   -2.5550   -4.2130 ho        1 MOL      0.402138
    177 O24         1.2560   -0.2780   -1.9220 oh        1 MOL     -0.810847
    178 H84         1.6140   -0.1720   -2.8060 ho        1 MOL      0.402138
    179 H85         1.6680    0.4210   -1.4180 ho        1 MOL      0.402138
    180 O25        -0.8810   -4.8420   -2.1490 oh        1 MOL     -0.810847
    181 H86        -0.8370   -5.5140   -2.8280 ho        1 MOL      0.402138
    182 H87        -1.7170   -5.0070   -1.7040 ho        1 MOL      0.402138
@<TRIPOS>BOND
     1    1    2 1   
     2    1    4 1   
     3    1    5 1   
     4    1    6 1   
     5    2    3 2   
     6    2    7 1   
     7    7    8 1   
     8    7   15 1   
     9    8    9 1   
    10    8   11 1   
    11    8   16 1   
    12    9   10 2   
    13    9   19 1   
    14   11   12 1   
    15   11   17 1   
    16   11   18 1   
    17   12   13 1   
    18   12   14 1   
    19   19   20 1   
    20   19   28 1   
    21   20   21 1   
    22   20   23 1   
    23   20   29 1   
    24   21   22 2   
    25   21   41 1   
    26   23   24 1   
    27   23   30 1   
    28   23   31 1   
    29   24   25 1   
    30   24   32 1   
    31   24   33 1   
    32   25   26 1   
    33   25   34 1   
    34   25   35 1   
    35   26   27 1   
    36   26   36 1   
    37   26   37 1   
    38   27   38 1   
    39   27   39 1   
    40   27   40 1   
    41   41   42 1   
    42   41   49 1   
    43   42   43 1   
    44   42   45 1   
    45   42   50 1   
    46   43   44 2   
    47   43   53 1   
    48   45   46 1   
    49   45   51 1   
    50   45   52 1   
    51   46   47 1   
    52   46   48 1   
    53   53   54 1   
    54   53   57 1   
    55   54   55 1   
    56   54   58 1   
    57   54   59 1   
    58   55   56 2   
    59   55   60 1   
    60   60   61 1   
    61   60   68 1   
    62   61   62 1   
    63   61   64 1   
    64   61   69 1   
    65   62   63 2   
    66   62   74 1   
    67   64   65 1   
    68   64   70 1   
    69   64   71 1   
    70   65   66 1   
    71   65   67 2   
    72   66   72 1   
    73   66   73 1   
    74   74   75 1   
    75   74   78 1   
    76   75   76 1   
    77   75   79 1   
    78   75   80 1   
    79   76   77 2   
    80   76   81 1   
    81   81   82 1   
    82   81   93 1   
    83   82   83 1   
    84   82   85 1   
    85   82   94 1   
    86   83   84 2   
    87   83  102 1   
    88   85   86 1   
    89   85   95 1   
    90   85   96 1   
    91   86   87 ar  
    92   86   88 ar  
    93   87   89 ar  
    94   87   97 1   
    95   88   90 ar  
    96   88   98 1   
    97   89   91 ar  
    98   89   99 1   
    99   90   91 ar  
   100   90  100 1   
   101   91   92 1   
   102   92  101 1   
   103  102  103 1   
   104  102  110 1   
   105  103  104 1   
   106  103  106 1   
   107  103  111 1   
   108  104  105 2   
   109  104  121 1   
   110  106  107 1   
   111  106  108 1   
   112  106  112 1   
   113  107  109 1   
   114  107  113 1   
   115  107  114 1   
   116  108  115 1   
   117  108  116 1   
   118  108  117 1   
   119  109  118 1   
   120  109  119 1   
   121  109  120 1   
   122  121  122 1   
   123  121  127 1   
   124  122  123 1   
   125  122  125 1   
   126  122  128 1   
   127  123  124 2   
   128  123  132 1   
   129  125  126 1   
   130  125  129 1   
   131  125  130 1   
   132  126  131 1   
   133  132  133 1   
   134  132  137 1   
   135  133  134 1   
   136  133  136 1   
   137  133  138 1   
   138  134  135 2   
   139  134  142 1   
   140  136  139 1   
   141  136  140 1   
   142  136  141 1   
   143  142  143 1   
   144  142  147 1   
   145  143  144 1   
   146  143  146 1   
   147  143  148 1   
   148  144  145 2   
   149  144  152 1   
   150  146  149 1   
   151  146  150 1   
   152  146  151 1   
   153  152  153 1   
   154  152  161 1   
   155  153  154 1   
   156  153  156 1   
   157  153  162 1   
   158  154  155 2   
   159  154  167 1   
   160  156  157 1   
   161  156  163 1   
   162  156  164 1   
   163  157  158 1   
   164  157  165 1   
   165  157  166 1   
   166  158  159 1   
   167  158  160 1   
   168  167  168 1   
   169  167  172 1   
   170  168  169 1   
   171  168  170 1   
   172  168  171 1   
   173  174  175 1   
   174  174  176 1   
   175  177  178 1   
   176  177  179 1   
   177  180  181 1   
   178  180  182 1   
@<TRIPOS>SUBSTRUCTURE
     1 MOL         1 TEMP              0 ****  ****    0 ROOT
