@<TRIPOS>MOLECULE
MOL
  191   184     1     0     0
SMALL
resp


@<TRIPOS>ATOM
      1 C1         -1.2600   -0.4720   -3.7550 c3        1 MOL     -0.466878
      2 C2         -2.3020   -0.6710   -2.6290 c         1 MOL      0.533904
      3 O1         -2.1420   -0.0180   -1.5850 o         1 MOL     -0.477274
      4 H1         -0.3730    0.0130   -3.3470 hc        1 MOL      0.135450
      5 H2         -0.9830   -1.4410   -4.1710 hc        1 MOL      0.135450
      6 H3         -1.6870    0.1530   -4.5390 hc        1 MOL      0.135450
      7 N1         -3.2960   -1.6080   -2.7830 n         1 MOL     -0.371038
      8 C3         -4.3580   -1.9230   -1.7710 c3        1 MOL     -0.006456
      9 C4         -4.0490   -3.1300   -0.9180 c         1 MOL      0.687890
     10 O2         -5.0230   -3.8360   -0.5300 o         1 MOL     -0.492590
     11 C5         -5.7070   -2.0700   -2.5560 c3        1 MOL     -0.083029
     12 C6         -5.5580   -3.1130   -3.7150 c         1 MOL      0.587640
     13 O3         -6.2770   -3.0090   -4.7450 o         1 MOL     -0.656864
     14 O4         -4.5820   -3.9100   -3.5820 o         1 MOL     -0.656864
     15 H4         -3.1440   -2.2920   -3.5150 hn        1 MOL      0.261949
     16 H5         -4.3820   -1.1420   -1.0200 h1        1 MOL     -0.027960
     17 H6         -5.8830   -1.0820   -2.9760 hc        1 MOL      0.033163
     18 H7         -6.5120   -2.3490   -1.8680 hc        1 MOL      0.033163
     19 N2         -2.7250   -3.3660   -0.6520 n         1 MOL     -0.671021
     20 C7         -2.2870   -4.4790    0.2500 c3        1 MOL     -0.068820
     21 C8         -2.8920   -4.3800    1.6250 c         1 MOL      0.490001
     22 O5         -2.6480   -5.2000    2.4870 o         1 MOL     -0.533705
     23 C9         -2.5510   -5.8670   -0.3380 c3        1 MOL      0.072789
     24 C10        -1.7590   -6.0710   -1.6490 c3        1 MOL      0.131382
     25 C11        -1.9920   -7.4710   -2.0780 c3        1 MOL     -0.152836
     26 C12        -1.2060   -7.7070   -3.3830 c3        1 MOL      0.016900
     27 N3         -2.0330   -7.3780   -4.6150 n4        1 MOL     -0.515084
     28 H8         -2.0390   -2.7070   -0.9790 hn        1 MOL      0.353216
     29 H9         -1.2430   -4.2890    0.4730 h1        1 MOL      0.119003
     30 H10        -3.6330   -5.8890   -0.4990 hc        1 MOL      0.016483
     31 H11        -2.2500   -6.6240    0.3900 hc        1 MOL      0.016483
     32 H12        -0.7030   -5.8950   -1.4690 hc        1 MOL     -0.003836
     33 H13        -2.1800   -5.4670   -2.4530 hc        1 MOL     -0.003836
     34 H14        -3.0540   -7.7100   -2.1750 hc        1 MOL      0.063164
     35 H15        -1.5230   -8.2240   -1.4440 hc        1 MOL      0.063164
     36 H16        -0.6700   -8.6560   -3.4400 hx        1 MOL      0.119477
     37 H17        -0.2830   -7.1330   -3.3630 hx        1 MOL      0.119477
     38 H18        -2.9510   -7.8070   -4.5980 hn        1 MOL      0.365565
     39 H19        -2.2260   -6.3920   -4.7120 hn        1 MOL      0.365565
     40 H20        -1.6460   -7.6710   -5.4950 hn        1 MOL      0.365565
     41 N4         -3.5440   -3.2480    1.9090 n         1 MOL     -0.154769
     42 C13        -4.3820   -2.9530    3.1620 c3        1 MOL     -0.062960
     43 C14        -5.3130   -1.7600    2.6830 c         1 MOL      0.394184
     44 O6         -4.9550   -0.9730    1.7740 o         1 MOL     -0.402704
     45 C15        -3.5960   -2.4310    4.2880 c3        1 MOL     -0.233337
     46 C16        -2.5820   -1.3290    3.9980 c         1 MOL      0.690149
     47 O7         -2.9950   -0.1160    3.8530 o         1 MOL     -0.744370
     48 O8         -1.3680   -1.6280    3.8350 o         1 MOL     -0.744370
     49 H21        -3.6700   -2.6010    1.1440 hn        1 MOL      0.092180
     50 H22        -4.9340   -3.8660    3.3950 h1        1 MOL      0.111444
     51 H23        -3.0220   -3.2650    4.6770 hc        1 MOL      0.084247
     52 H24        -4.2550   -2.0740    5.0810 hc        1 MOL      0.084247
     53 N5         -6.4550   -1.6380    3.2260 n         1 MOL     -0.319866
     54 C17        -7.4530   -0.7930    2.5650 c3        1 MOL     -0.011228
     55 C18        -7.7970   -1.2050    1.1510 c         1 MOL      0.540813
     56 O9         -8.1150   -2.3730    0.8640 o         1 MOL     -0.526917
     57 H25        -6.6800   -2.2330    4.0050 hn        1 MOL      0.311382
     58 H26        -7.1320    0.2380    2.4830 h1        1 MOL      0.041482
     59 H27        -8.3820   -0.8470    3.1320 h1        1 MOL      0.041482
     60 N6         -7.9540   -0.2660    0.2320 n         1 MOL     -0.386327
     61 C19        -7.5610    1.1530    0.2660 c3        1 MOL      0.014941
     62 C20        -7.1260    1.5600   -1.2050 c         1 MOL      0.461088
     63 O10        -7.8290    1.3860   -2.2190 o         1 MOL     -0.472225
     64 C21        -8.8300    1.9820    0.6670 c3        1 MOL     -0.342050
     65 C22        -8.7930    3.4120    0.2770 c         1 MOL      0.613941
     66 N7         -7.9260    4.2040    0.8390 n         1 MOL     -0.696690
     67 O11        -9.3480    3.7550   -0.7270 o         1 MOL     -0.498898
     68 H28        -8.2950   -0.5720   -0.6750 hn        1 MOL      0.297380
     69 H29        -6.6780    1.2180    0.9000 h1        1 MOL      0.091786
     70 H30        -9.0820    1.9780    1.7300 hc        1 MOL      0.122492
     71 H31        -9.6890    1.5150    0.1750 hc        1 MOL      0.122492
     72 H32        -7.4000    3.9230    1.6500 hn        1 MOL      0.329340
     73 H33        -7.8680    5.1860    0.6060 hn        1 MOL      0.329340
     74 N8         -5.9350    2.1840   -1.3650 n         1 MOL     -0.236375
     75 C23        -5.0370    2.7570   -0.3570 c3        1 MOL     -0.087746
     76 C24        -3.8000    3.5460   -0.7900 c         1 MOL      0.744881
     77 O12        -3.9090    4.3590   -1.6660 o         1 MOL     -0.543197
     78 H34        -5.6240    2.3720   -2.3060 hn        1 MOL      0.252365
     79 H35        -4.6980    2.0230    0.3820 h1        1 MOL      0.017769
     80 H36        -5.6160    3.5160    0.1720 h1        1 MOL      0.017769
     81 N9         -2.6150    3.4040   -0.1070 n         1 MOL     -0.778973
     82 C25        -1.3840    4.0260   -0.5710 c3        1 MOL      0.525984
     83 C26        -0.2080    3.0270   -0.4060 c         1 MOL      0.380523
     84 O13        -0.3470    2.0820    0.3480 o         1 MOL     -0.458045
     85 C27        -1.1730    5.3900    0.0950 c3        1 MOL     -0.360297
     86 C28        -0.2060    6.1950   -0.7340 ca        1 MOL      0.159433
     87 C29         1.0380    6.5560   -0.1720 ca        1 MOL     -0.172698
     88 C30        -0.5910    6.7060   -1.9530 ca        1 MOL     -0.172698
     89 C31         1.9120    7.4060   -0.9130 ca        1 MOL     -0.259809
     90 C32         0.3370    7.3530   -2.7300 ca        1 MOL     -0.259809
     91 C33         1.5550    7.8160   -2.2050 ca        1 MOL      0.325355
     92 O14         2.4200    8.5070   -3.0460 oh        1 MOL     -0.488468
     93 H37        -2.5100    2.6720    0.5870 hn        1 MOL      0.237115
     94 H38        -1.3780    4.1880   -1.6500 h1        1 MOL     -0.023035
     95 H39        -0.8190    5.3370    1.1190 hc        1 MOL      0.104062
     96 H40        -2.1220    5.9170   -0.0620 hc        1 MOL      0.104062
     97 H41         1.3800    6.0800    0.7400 ha        1 MOL      0.136953
     98 H42        -1.4990    6.3720   -2.4380 ha        1 MOL      0.136953
     99 H43         2.8760    7.6430   -0.4810 ha        1 MOL      0.152477
    100 H44         0.1170    7.6180   -3.7510 ha        1 MOL      0.152477
    101 H45         1.8650    8.7850   -3.7760 ho        1 MOL      0.365494
    102 N10         0.9470    3.3590   -1.0150 n         1 MOL     -0.336720
    103 C34         2.1830    2.5570   -1.0590 c3        1 MOL     -0.246383
    104 C35         2.9520    2.4690    0.3050 c         1 MOL      0.419267
    105 O15         2.7910    3.3750    1.1850 o         1 MOL     -0.498828
    106 C36         2.9830    3.1180   -2.1660 c3        1 MOL      0.209291
    107 C37         3.8780    4.4010   -1.8770 c3        1 MOL     -0.024812
    108 C38         3.9780    2.0590   -2.7200 c3        1 MOL     -0.082053
    109 C39         4.4060    5.1650   -3.0640 c3        1 MOL     -0.182908
    110 H46         0.9520    4.1680   -1.6210 hn        1 MOL      0.231553
    111 H47         1.8660    1.5520   -1.3470 h1        1 MOL      0.187585
    112 H48         2.3270    3.3400   -3.0120 hc        1 MOL      0.018201
    113 H49         4.6590    4.0440   -1.2120 hc        1 MOL      0.048663
    114 H50         3.1950    5.0840   -1.3650 hc        1 MOL      0.048663
    115 H51         4.2150    2.1190   -3.7860 hc        1 MOL      0.010673
    116 H52         4.8360    1.9960   -2.0610 hc        1 MOL      0.010673
    117 H53         3.5120    1.0790   -2.6490 hc        1 MOL      0.010673
    118 H54         3.6260    5.2970   -3.8070 hc        1 MOL      0.053227
    119 H55         4.9490    6.0930   -2.8510 hc        1 MOL      0.053227
    120 H56         5.1220    4.4970   -3.5540 hc        1 MOL      0.053227
    121 N11         3.8820    1.4830    0.4860 n         1 MOL     -0.426043
    122 C40         4.7850    1.3430    1.6090 c3        1 MOL      0.040611
    123 C41         5.0790   -0.0410    2.0280 c         1 MOL      0.601292
    124 O16         5.1890   -0.9210    1.1820 o         1 MOL     -0.495427
    125 C42         6.1540    2.0130    1.3390 c3        1 MOL     -0.166707
    126 O17         6.7400    1.6720    0.1470 oh        1 MOL     -0.498138
    127 H57         4.0780    0.8850   -0.3060 hn        1 MOL      0.324995
    128 H58         4.2940    1.9800    2.3520 h1        1 MOL      0.041340
    129 H59         6.9060    1.9280    2.1190 h1        1 MOL      0.110057
    130 H60         5.9970    3.0830    1.2320 h1        1 MOL      0.110057
    131 H61         7.6060    2.1000    0.2110 ho        1 MOL      0.419703
    132 N12         5.2370   -0.2800    3.3550 n         1 MOL     -0.535427
    133 C43         5.9040   -1.4990    3.8970 c3        1 MOL      0.290346
    134 C44         7.1450   -1.9280    3.0830 c         1 MOL      0.401131
    135 O18         7.3890   -3.0360    2.7400 o         1 MOL     -0.437771
    136 C45         4.9050   -2.5710    4.0390 c3        1 MOL     -0.396408
    137 H62         4.9500    0.4210    4.0220 hn        1 MOL      0.258322
    138 H63         6.2650   -1.1910    4.8850 h1        1 MOL      0.024879
    139 H64         5.2370   -3.3330    4.7450 hc        1 MOL      0.123289
    140 H65         3.9690   -2.1140    4.3470 hc        1 MOL      0.123289
    141 H66         4.8460   -3.0830    3.0810 hc        1 MOL      0.123289
    142 N13         7.9760   -0.9620    2.7800 n         1 MOL     -0.492011
    143 C46         9.2450   -0.9990    1.9630 c3        1 MOL      0.371614
    144 C47         9.1770   -1.6270    0.6180 c         1 MOL      0.250332
    145 O19        10.1180   -2.2610    0.0970 o         1 MOL     -0.497568
    146 C48        10.3440   -1.5720    2.8970 c3        1 MOL     -0.229677
    147 H67         7.8380   -0.0390    3.1780 hn        1 MOL      0.217274
    148 H68         9.5150    0.0130    1.6980 h1        1 MOL     -0.008024
    149 H69        10.3860   -1.1350    3.8870 hc        1 MOL      0.063306
    150 H70        10.3880   -2.6580    3.0050 hc        1 MOL      0.063306
    151 H71        11.2820   -1.2550    2.4220 hc        1 MOL      0.063306
    152 N14         7.9720   -1.4990    0.0640 n         1 MOL     -0.035647
    153 C49         7.6320   -2.1520   -1.2980 c3        1 MOL     -0.170271
    154 C50         8.3110   -1.4020   -2.5210 c         1 MOL      0.411373
    155 O20         8.5580   -1.9880   -3.5950 o         1 MOL     -0.493146
    156 C51         6.1200   -2.3710   -1.5050 c3        1 MOL      0.164224
    157 C52         5.8340   -3.2600   -2.6960 c3        1 MOL     -0.234008
    158 C53         4.3860   -3.7290   -2.7830 c         1 MOL      0.638699
    159 O21         4.0790   -4.4360   -3.8200 o         1 MOL     -0.723971
    160 O22         3.6270   -3.6350   -1.8080 o         1 MOL     -0.723971
    161 H72         7.1940   -1.0090    0.4940 hn        1 MOL      0.106842
    162 H73         8.0890   -3.1390   -1.2170 h1        1 MOL      0.138597
    163 H74         5.6450   -1.3970   -1.5770 hc        1 MOL      0.022396
    164 H75         5.7820   -2.8990   -0.6150 hc        1 MOL      0.022396
    165 H76         6.4380   -4.1690   -2.6390 hc        1 MOL      0.058909
    166 H77         6.1440   -2.8700   -3.6620 hc        1 MOL      0.058909
    167 N15         8.6940   -0.1430   -2.3540 n         1 MOL     -0.159185
    168 C54         9.4840    0.5110   -3.4100 c3        1 MOL     -0.220102
    169 H78        10.3600    0.9840   -2.9660 h1        1 MOL      0.096760
    170 H79         9.8030   -0.2330   -4.1390 h1        1 MOL      0.096760
    171 H80         8.8740    1.2680   -3.9050 h1        1 MOL      0.096760
    172 H81         8.4860    0.3890   -1.5290 hn        1 MOL      0.121303
    173 Ca1        -0.8660    0.8090    2.8230 Ca        1 MOL      1.759289
    174 O23         1.6080    0.2200    2.8190 oh        1 MOL     -0.834720
    175 H82         2.2280    0.7310    3.3320 ho        1 MOL      0.414102
    176 H83         2.0010   -0.6580    2.7730 ho        1 MOL      0.414102
    177 O24        -2.7760    0.5380    0.8750 oh        1 MOL     -0.834720
    178 H84        -2.5880    0.2220   -0.0140 ho        1 MOL      0.414102
    179 H85        -3.5260    0.0150    1.1600 ho        1 MOL      0.414102
    180 O25        -2.3100    2.9900    2.7780 oh        1 MOL     -0.834720
    181 H86        -3.0080    3.2220    2.1660 ho        1 MOL      0.414102
    182 H87        -2.1130    3.8020    3.2360 ho        1 MOL      0.414102
    183 O26        -0.3840    0.6530    5.3830 oh        1 MOL     -0.834720
    184 H88        -0.9940    1.1100    5.9660 ho        1 MOL      0.414102
    185 H89         0.1700    0.1360    5.9630 ho        1 MOL      0.414102
    186 O27         0.6100    3.1140    3.5370 oh        1 MOL     -0.834720
    187 H90         1.2430    3.4860    2.9240 ho        1 MOL      0.414102
    188 H91         0.7530    3.5930    4.3490 ho        1 MOL      0.414102
    189 O28        -0.3290   -1.2920    0.4280 oh        1 MOL     -0.834720
    190 H92        -0.1820   -2.0660    0.9640 ho        1 MOL      0.414102
    191 H93         0.4330   -1.2450   -0.1470 ho        1 MOL      0.414102
@<TRIPOS>BOND
     1    1    2 1   
     2    1    4 1   
     3    1    5 1   
     4    1    6 1   
     5    2    3 2   
     6    2    7 1   
     7    7    8 1   
     8    7   15 1   
     9    8    9 1   
    10    8   11 1   
    11    8   16 1   
    12    9   10 2   
    13    9   19 1   
    14   11   12 1   
    15   11   17 1   
    16   11   18 1   
    17   12   13 1   
    18   12   14 1   
    19   19   20 1   
    20   19   28 1   
    21   20   21 1   
    22   20   23 1   
    23   20   29 1   
    24   21   22 2   
    25   21   41 1   
    26   23   24 1   
    27   23   30 1   
    28   23   31 1   
    29   24   25 1   
    30   24   32 1   
    31   24   33 1   
    32   25   26 1   
    33   25   34 1   
    34   25   35 1   
    35   26   27 1   
    36   26   36 1   
    37   26   37 1   
    38   27   38 1   
    39   27   39 1   
    40   27   40 1   
    41   41   42 1   
    42   41   49 1   
    43   42   43 1   
    44   42   45 1   
    45   42   50 1   
    46   43   44 2   
    47   43   53 1   
    48   45   46 1   
    49   45   51 1   
    50   45   52 1   
    51   46   47 1   
    52   46   48 1   
    53   53   54 1   
    54   53   57 1   
    55   54   55 1   
    56   54   58 1   
    57   54   59 1   
    58   55   56 2   
    59   55   60 1   
    60   60   61 1   
    61   60   68 1   
    62   61   62 1   
    63   61   64 1   
    64   61   69 1   
    65   62   63 2   
    66   62   74 1   
    67   64   65 1   
    68   64   70 1   
    69   64   71 1   
    70   65   66 1   
    71   65   67 2   
    72   66   72 1   
    73   66   73 1   
    74   74   75 1   
    75   74   78 1   
    76   75   76 1   
    77   75   79 1   
    78   75   80 1   
    79   76   77 2   
    80   76   81 1   
    81   81   82 1   
    82   81   93 1   
    83   82   83 1   
    84   82   85 1   
    85   82   94 1   
    86   83   84 2   
    87   83  102 1   
    88   85   86 1   
    89   85   95 1   
    90   85   96 1   
    91   86   87 ar  
    92   86   88 ar  
    93   87   89 ar  
    94   87   97 1   
    95   88   90 ar  
    96   88   98 1   
    97   89   91 ar  
    98   89   99 1   
    99   90   91 ar  
   100   90  100 1   
   101   91   92 1   
   102   92  101 1   
   103  102  103 1   
   104  102  110 1   
   105  103  104 1   
   106  103  106 1   
   107  103  111 1   
   108  104  105 2   
   109  104  121 1   
   110  106  107 1   
   111  106  108 1   
   112  106  112 1   
   113  107  109 1   
   114  107  113 1   
   115  107  114 1   
   116  108  115 1   
   117  108  116 1   
   118  108  117 1   
   119  109  118 1   
   120  109  119 1   
   121  109  120 1   
   122  121  122 1   
   123  121  127 1   
   124  122  123 1   
   125  122  125 1   
   126  122  128 1   
   127  123  124 2   
   128  123  132 1   
   129  125  126 1   
   130  125  129 1   
   131  125  130 1   
   132  126  131 1   
   133  132  133 1   
   134  132  137 1   
   135  133  134 1   
   136  133  136 1   
   137  133  138 1   
   138  134  135 2   
   139  134  142 1   
   140  136  139 1   
   141  136  140 1   
   142  136  141 1   
   143  142  143 1   
   144  142  147 1   
   145  143  144 1   
   146  143  146 1   
   147  143  148 1   
   148  144  145 2   
   149  144  152 1   
   150  146  149 1   
   151  146  150 1   
   152  146  151 1   
   153  152  153 1   
   154  152  161 1   
   155  153  154 1   
   156  153  156 1   
   157  153  162 1   
   158  154  155 2   
   159  154  167 1   
   160  156  157 1   
   161  156  163 1   
   162  156  164 1   
   163  157  158 1   
   164  157  165 1   
   165  157  166 1   
   166  158  159 1   
   167  158  160 1   
   168  167  168 1   
   169  167  172 1   
   170  168  169 1   
   171  168  170 1   
   172  168  171 1   
   173  174  175 1   
   174  174  176 1   
   175  177  178 1   
   176  177  179 1   
   177  180  181 1   
   178  180  182 1   
   179  183  184 1   
   180  183  185 1   
   181  186  187 1   
   182  186  188 1   
   183  189  190 1   
   184  189  191 1   
@<TRIPOS>SUBSTRUCTURE
     1 MOL         1 TEMP              0 ****  ****    0 ROOT
