@<TRIPOS>MOLECULE
MOL
  192   187     1     0     0
SMALL
resp


@<TRIPOS>ATOM
      1 C1          4.1130    4.3510   -2.9700 c3        1 MOL     -0.394632
      2 C2          5.0240    3.4190   -2.2510 c         1 MOL      0.863053
      3 O1          4.6800    3.0390   -1.1260 o         1 MOL     -0.647390
      4 H1          4.2700    4.2540   -4.0450 hc        1 MOL      0.093883
      5 H2          3.0780    4.1060   -2.7300 hc        1 MOL      0.093883
      6 H3          4.3250    5.3750   -2.6630 hc        1 MOL      0.093883
      7 N1          6.2010    3.0340   -2.8120 n         1 MOL     -0.811088
      8 C3          6.9240    1.9080   -2.2760 c3        1 MOL      0.439069
      9 C4          6.0250    0.6510   -1.9890 c         1 MOL      0.182392
     10 O2          5.6280    0.3740   -0.8720 o         1 MOL     -0.386459
     11 C5          7.8800    2.3130   -1.1460 c3        1 MOL     -0.120865
     12 C6          7.4400    3.2000    0.0240 c         1 MOL      0.756132
     13 O3          6.7210    2.5880    0.8140 o         1 MOL     -0.730521
     14 O4          7.7370    4.4170    0.2120 o         1 MOL     -0.730521
     15 H4          6.6840    3.5010   -3.5680 hn        1 MOL      0.371097
     16 H5          7.5840    1.5650   -3.0740 h1        1 MOL     -0.010792
     17 H6          8.6550    2.8760   -1.6730 hc        1 MOL     -0.018868
     18 H7          8.3830    1.4310   -0.7540 hc        1 MOL     -0.018868
     19 N2          5.6700   -0.1160   -3.0540 n         1 MOL     -0.482736
     20 C7          4.8850   -1.4020   -3.0860 c3        1 MOL      0.093292
     21 C8          5.5410   -2.5940   -2.4480 c         1 MOL      0.446163
     22 O5          5.5750   -3.6730   -3.0330 o         1 MOL     -0.534062
     23 C9          3.3830   -1.2690   -2.6100 c3        1 MOL      0.296704
     24 C10         2.5850   -2.5780   -3.0390 c3        1 MOL      0.105473
     25 C11         2.7730    0.0460   -3.0630 c3        1 MOL     -0.425665
     26 C12         2.6630   -2.9150   -4.5330 c3        1 MOL     -0.262493
     27 H8          5.7970    0.3930   -3.9200 hn        1 MOL      0.284339
     28 H9          4.8590   -1.5950   -4.1560 h1        1 MOL      0.045789
     29 H10         3.3890   -1.2570   -1.5130 hc        1 MOL     -0.186646
     30 H11         1.5440   -2.3680   -2.7870 hc        1 MOL      0.031375
     31 H12         2.8330   -3.4700   -2.4590 hc        1 MOL      0.031375
     32 H13         2.9810    0.1790   -4.1240 hc        1 MOL      0.088216
     33 H14         1.7120    0.0660   -2.8060 hc        1 MOL      0.088216
     34 H15         3.1230    0.8520   -2.4130 hc        1 MOL      0.088216
     35 H16         2.3330   -2.0350   -5.0700 hc        1 MOL      0.038493
     36 H17         3.6620   -3.2850   -4.7870 hc        1 MOL      0.038493
     37 H18         1.9030   -3.6790   -4.6930 hc        1 MOL      0.038493
     38 N3          6.0890   -2.4190   -1.2240 n         1 MOL     -0.236630
     39 C13         6.7660   -3.4410   -0.4480 c3        1 MOL     -0.076665
     40 C14         5.9760   -4.7100   -0.1380 c         1 MOL      0.661920
     41 O6          6.5530   -5.8080   -0.1360 o         1 MOL     -0.623546
     42 C15         7.3820   -2.8480    0.7920 c3        1 MOL     -0.188878
     43 C16         8.2500   -1.5790    0.4880 c         1 MOL      0.831014
     44 O7          9.0380   -1.4980   -0.4790 o         1 MOL     -0.721464
     45 O8          8.3870   -0.7580    1.3870 o         1 MOL     -0.721464
     46 H19         5.8750   -1.5840   -0.6990 hn        1 MOL      0.250136
     47 H20         7.5700   -3.7710   -1.0980 h1        1 MOL      0.071369
     48 H21         8.1200   -3.5070    1.2560 hc        1 MOL      0.039369
     49 H22         6.6280   -2.6160    1.5440 hc        1 MOL      0.039369
     50 N4          4.6910   -4.7990    0.1520 n         1 MOL     -0.581131
     51 C17         3.7750   -3.7660    0.6930 c3        1 MOL      0.287835
     52 C18         2.4660   -4.3040    1.1800 c         1 MOL      0.489311
     53 O9          2.0870   -5.4220    0.8630 o         1 MOL     -0.583287
     54 H23         4.4010   -5.7520    0.2580 hn        1 MOL      0.300636
     55 H24         3.6460   -3.0920   -0.1540 h1        1 MOL     -0.009695
     56 H25         4.2080   -3.2510    1.5520 h1        1 MOL     -0.009695
     57 N5          1.8010   -3.6770    2.1220 n         1 MOL     -0.368034
     58 C19         2.0230   -2.3530    2.6400 c3        1 MOL      0.195654
     59 C20         2.2450   -1.2820    1.5190 c         1 MOL      0.383327
     60 O10         3.3800   -0.8870    1.2140 o         1 MOL     -0.614013
     61 C21         3.0560   -2.2590    3.7720 c3        1 MOL     -0.451325
     62 C22         2.5010   -2.9120    5.1190 c         1 MOL      0.720279
     63 O11         2.7590   -4.1260    5.3260 o         1 MOL     -0.719722
     64 O12         1.7140   -2.2250    5.8100 o         1 MOL     -0.719722
     65 H26         1.0470   -4.1490    2.5940 hn        1 MOL      0.300571
     66 H27         1.1020   -2.1340    3.1810 h1        1 MOL      0.041326
     67 H28         3.1910   -1.2190    4.0600 hc        1 MOL      0.110810
     68 H29         4.0750   -2.5680    3.5090 hc        1 MOL      0.110810
     69 N6          1.2340   -0.8660    0.8080 n         1 MOL     -0.336564
     70 C23        -0.2110   -1.2170    0.9240 c3        1 MOL     -0.036046
     71 C24        -0.5040   -2.4760    0.1930 c         1 MOL      0.430248
     72 O13         0.1820   -2.8860   -0.7840 o         1 MOL     -0.491239
     73 H30         1.5010   -0.3090    0.0080 hn        1 MOL      0.359324
     74 H31        -0.7030   -0.3690    0.4490 h1        1 MOL      0.076480
     75 H32        -0.5670   -1.2230    1.9580 h1        1 MOL      0.076480
     76 N7         -1.6690   -2.9950    0.5840 n         1 MOL     -0.411012
     77 C25        -2.3150   -4.1690   -0.0250 c3        1 MOL     -0.018196
     78 C26        -3.2770   -4.0060   -1.2080 c         1 MOL      0.435651
     79 O14        -3.5920   -4.9930   -1.8430 o         1 MOL     -0.514378
     80 C27        -3.1080   -4.8640    1.0300 c3        1 MOL     -0.042991
     81 C28        -4.3350   -4.2410    1.7410 c3        1 MOL     -0.266488
     82 C29        -5.5560   -3.9100    0.8590 c         1 MOL      0.631911
     83 N8         -6.4190   -4.8390    0.6500 n         1 MOL     -0.727504
     84 O15        -5.7260   -2.7770    0.4300 o         1 MOL     -0.536634
     85 H33        -2.2370   -2.4850    1.2340 hn        1 MOL      0.274683
     86 H34        -1.5420   -4.8840   -0.3100 h1        1 MOL      0.158022
     87 H35        -2.4100   -5.1330    1.8280 hc        1 MOL      0.034843
     88 H36        -3.5220   -5.7900    0.6200 hc        1 MOL      0.034843
     89 H37        -3.9900   -3.3820    2.3110 hc        1 MOL      0.102488
     90 H38        -4.7230   -4.9850    2.4350 hc        1 MOL      0.102488
     91 H39        -6.3770   -5.7320    1.1240 hn        1 MOL      0.356587
     92 H40        -7.1170   -4.6980   -0.0660 hn        1 MOL      0.356587
     93 N9         -3.7040   -2.7730   -1.5200 n         1 MOL     -0.139095
     94 C30        -3.9690   -2.3880   -2.9180 c3        1 MOL     -0.307999
     95 C31        -5.3370   -1.5630   -3.0620 c         1 MOL      0.498692
     96 O16        -5.7230   -1.3180   -4.1970 o         1 MOL     -0.562821
     97 C32        -2.8010   -1.6050   -3.6450 c3        1 MOL      0.342559
     98 C33        -1.6550   -2.4890   -4.1700 c3        1 MOL     -0.202252
     99 C34        -2.1880   -0.4080   -2.8500 c3        1 MOL     -0.202252
    100 H41        -3.5480   -1.9950   -0.8920 hn        1 MOL      0.178945
    101 H42        -3.9740   -3.2610   -3.5790 h1        1 MOL      0.147488
    102 H43        -3.1720   -1.1160   -4.5520 hc        1 MOL     -0.028589
    103 H44        -1.1930   -1.9370   -4.9960 hc        1 MOL      0.040855
    104 H45        -0.8700   -2.7680   -3.4670 hc        1 MOL      0.040855
    105 H46        -2.1630   -3.2510   -4.7590 hc        1 MOL      0.040855
    106 H47        -1.7460    0.2890   -3.5560 hc        1 MOL      0.040855
    107 H48        -2.9940    0.0310   -2.2710 hc        1 MOL      0.040855
    108 H49        -1.4150   -0.8310   -2.2070 hc        1 MOL      0.040855
    109 N10        -5.9990   -1.3270   -1.9540 n         1 MOL     -0.267971
    110 C35        -7.3090   -0.6500   -1.8420 c3        1 MOL     -0.015254
    111 C36        -7.3260    0.7060   -1.2210 c         1 MOL      0.582458
    112 O17        -8.2580    1.4760   -1.4970 o         1 MOL     -0.587572
    113 C37        -8.4240   -1.5350   -1.1510 c3        1 MOL     -0.042769
    114 C38        -8.6810   -2.8380   -1.8820 c         1 MOL      0.619134
    115 N11        -9.0020   -2.8020   -3.1170 n         1 MOL     -0.742122
    116 O18        -8.6130   -3.9560   -1.3290 o         1 MOL     -0.590844
    117 H50        -5.4880   -1.6470   -1.1430 hn        1 MOL      0.212718
    118 H51        -7.7170   -0.5710   -2.8460 h1        1 MOL      0.062304
    119 H52        -9.3250   -0.9460   -1.0730 hc        1 MOL      0.019978
    120 H53        -8.0990   -1.7910   -0.1440 hc        1 MOL      0.019978
    121 H54        -8.9020   -2.0280   -3.7590 hn        1 MOL      0.361432
    122 H55        -8.9500   -3.7250   -3.5160 hn        1 MOL      0.361432
    123 N12        -6.3030    1.2100   -0.5570 n         1 MOL     -0.461253
    124 C39        -6.2870    2.5170    0.1780 c3        1 MOL      0.138078
    125 C40        -4.8960    2.9830    0.3460 c         1 MOL      0.370285
    126 O19        -3.9160    2.2200    0.3410 o         1 MOL     -0.426822
    127 C41        -7.0660    2.3180    1.5850 c3        1 MOL     -0.256240
    128 C42        -6.7740    1.0760    2.3950 ca        1 MOL     -0.022616
    129 C43        -5.6940    1.0590    3.3090 ca        1 MOL     -0.039910
    130 C44        -7.5080   -0.0950    2.2290 ca        1 MOL     -0.039910
    131 C45        -5.3170   -0.1580    3.9840 ca        1 MOL     -0.363749
    132 C46        -7.2070   -1.3000    2.9080 ca        1 MOL     -0.363749
    133 C47        -6.1060   -1.3270    3.7730 ca        1 MOL      0.386438
    134 O20        -5.7030   -2.4940    4.3520 oh        1 MOL     -0.573102
    135 H56        -5.6550    0.4740   -0.3010 hn        1 MOL      0.296845
    136 H57        -6.8410    3.2180   -0.4520 h1        1 MOL      0.094729
    137 H58        -8.1490    2.2740    1.4080 hc        1 MOL      0.097132
    138 H59        -6.8960    3.1700    2.2340 hc        1 MOL      0.097132
    139 H60        -5.1330    1.9630    3.4500 ha        1 MOL      0.119878
    140 H61        -8.4250   -0.0610    1.6640 ha        1 MOL      0.119878
    141 H62        -4.4310   -0.1270    4.6120 ha        1 MOL      0.192049
    142 H63        -7.8080   -2.1820    2.7500 ha        1 MOL      0.192049
    143 H64        -5.0290   -2.3070    5.0120 ho        1 MOL      0.421491
    144 N13        -4.7530    4.2990    0.7480 n         1 MOL     -0.546826
    145 C48        -3.5240    5.0560    1.1720 c3        1 MOL      0.174718
    146 C49        -2.5120    5.3200    0.0520 c         1 MOL      0.619591
    147 O21        -2.0160    6.4220   -0.0410 o         1 MOL     -0.563161
    148 C50        -3.0380    4.5160    2.4600 c3        1 MOL      0.059563
    149 C51        -1.9900    5.3660    3.1660 c3        1 MOL     -0.428972
    150 C52        -1.6870    4.7950    4.5850 c         1 MOL      0.728260
    151 O22        -2.0400    5.4820    5.5510 o         1 MOL     -0.730259
    152 O23        -1.2020    3.6470    4.7310 o         1 MOL     -0.730259
    153 H65        -5.5850    4.8220    0.5390 hn        1 MOL      0.273753
    154 H66        -3.7820    6.0890    1.3800 h1        1 MOL      0.009191
    155 H67        -2.6230    3.5190    2.2410 hc        1 MOL      0.056577
    156 H68        -3.9530    4.3850    3.0440 hc        1 MOL      0.056577
    157 H69        -2.3240    6.4050    3.1660 hc        1 MOL      0.093008
    158 H70        -1.0780    5.2860    2.5860 hc        1 MOL      0.093008
    159 N14        -2.1580    4.3230   -0.8290 n         1 MOL     -0.623420
    160 C53        -1.0170    4.5250   -1.8070 c3        1 MOL     -0.124024
    161 C54        -1.4520    5.4230   -3.0400 c         1 MOL      0.468204
    162 O24        -0.6280    5.6220   -3.9110 o         1 MOL     -0.519380
    163 C55        -0.4590    3.1200   -2.2100 c3        1 MOL     -0.047320
    164 C56        -0.0790    2.1340   -1.0930 c3        1 MOL      0.407616
    165 C57         1.0810    2.4610   -0.1370 c         1 MOL      0.584808
    166 O25         0.9600    3.4110    0.7470 o         1 MOL     -0.642280
    167 O26         2.0940    1.6890   -0.1380 o         1 MOL     -0.642280
    168 H71        -2.5420    3.3860   -0.8520 hn        1 MOL      0.324868
    169 H72        -0.1810    4.9800   -1.2760 h1        1 MOL      0.193359
    170 H73         0.4660    3.3760   -2.7220 hc        1 MOL      0.016107
    171 H74        -1.0780    2.6160   -2.9520 hc        1 MOL      0.016107
    172 H75         0.2570    1.2240   -1.6020 hc        1 MOL     -0.150501
    173 H76        -0.9530    1.9080   -0.4740 hc        1 MOL     -0.150501
    174 N15        -2.6910    5.9780   -3.1090 n         1 MOL     -0.176085
    175 C58        -3.3840    6.7110   -4.1700 c3        1 MOL     -0.170266
    176 H77        -2.6900    7.4070   -4.6420 h1        1 MOL      0.076878
    177 H78        -3.7560    6.0080   -4.9150 h1        1 MOL      0.076878
    178 H79        -4.2200    7.2650   -3.7430 h1        1 MOL      0.076878
    179 H80        -3.2340    5.8800   -2.2640 hn        1 MOL      0.191431
    180 Ca1         4.3140    1.6510    1.0250 Ca        1 MOL      1.719194
    181 O27         5.0700    2.9110    3.7210 oh        1 MOL     -0.781858
    182 H81         4.3160    3.2570    4.2000 ho        1 MOL      0.376322
    183 H82         5.3930    2.1980    4.2750 ho        1 MOL      0.376322
    184 O28         2.9130    1.3350    3.1960 oh        1 MOL     -0.781858
    185 H83         2.9250    1.0460    4.1030 ho        1 MOL      0.376322
    186 H84         2.0320    1.7080    3.0710 ho        1 MOL      0.376322
    187 O29         3.2400    4.0470    1.9700 oh        1 MOL     -0.781858
    188 H85         3.1890    4.2520    2.9120 ho        1 MOL      0.376322
    189 H86         2.3290    3.9720    1.6930 ho        1 MOL      0.376322
    190 O30         6.0550    0.1750    2.4790 oh        1 MOL     -0.781858
    191 H87         6.2570   -0.1140    3.3670 ho        1 MOL      0.376322
    192 H88         6.8350   -0.0580    1.9630 ho        1 MOL      0.376322
@<TRIPOS>BOND
     1    1    2 1   
     2    1    4 1   
     3    1    5 1   
     4    1    6 1   
     5    2    3 2   
     6    2    7 1   
     7    7    8 1   
     8    7   15 1   
     9    8    9 1   
    10    8   11 1   
    11    8   16 1   
    12    9   10 2   
    13    9   19 1   
    14   11   12 1   
    15   11   17 1   
    16   11   18 1   
    17   12   13 1   
    18   12   14 1   
    19   19   20 1   
    20   19   27 1   
    21   20   21 1   
    22   20   23 1   
    23   20   28 1   
    24   21   22 2   
    25   21   38 1   
    26   23   24 1   
    27   23   25 1   
    28   23   29 1   
    29   24   26 1   
    30   24   30 1   
    31   24   31 1   
    32   25   32 1   
    33   25   33 1   
    34   25   34 1   
    35   26   35 1   
    36   26   36 1   
    37   26   37 1   
    38   38   39 1   
    39   38   46 1   
    40   39   40 1   
    41   39   42 1   
    42   39   47 1   
    43   40   41 2   
    44   40   50 1   
    45   42   43 1   
    46   42   48 1   
    47   42   49 1   
    48   43   44 1   
    49   43   45 1   
    50   50   51 1   
    51   50   54 1   
    52   51   52 1   
    53   51   55 1   
    54   51   56 1   
    55   52   53 2   
    56   52   57 1   
    57   57   58 1   
    58   57   65 1   
    59   58   59 1   
    60   58   61 1   
    61   58   66 1   
    62   59   60 2   
    63   59   69 1   
    64   61   62 1   
    65   61   67 1   
    66   61   68 1   
    67   62   63 1   
    68   62   64 1   
    69   69   70 1   
    70   69   73 1   
    71   70   71 1   
    72   70   74 1   
    73   70   75 1   
    74   71   72 2   
    75   71   76 1   
    76   76   77 1   
    77   76   85 1   
    78   77   78 1   
    79   77   80 1   
    80   77   86 1   
    81   78   79 2   
    82   78   93 1   
    83   80   81 1   
    84   80   87 1   
    85   80   88 1   
    86   81   82 1   
    87   81   89 1   
    88   81   90 1   
    89   82   83 1   
    90   82   84 2   
    91   83   91 1   
    92   83   92 1   
    93   93   94 1   
    94   93  100 1   
    95   94   95 1   
    96   94   97 1   
    97   94  101 1   
    98   95   96 2   
    99   95  109 1   
   100   97   98 1   
   101   97   99 1   
   102   97  102 1   
   103   98  103 1   
   104   98  104 1   
   105   98  105 1   
   106   99  106 1   
   107   99  107 1   
   108   99  108 1   
   109  109  110 1   
   110  109  117 1   
   111  110  111 1   
   112  110  113 1   
   113  110  118 1   
   114  111  112 2   
   115  111  123 1   
   116  113  114 1   
   117  113  119 1   
   118  113  120 1   
   119  114  115 1   
   120  114  116 2   
   121  115  121 1   
   122  115  122 1   
   123  123  124 1   
   124  123  135 1   
   125  124  125 1   
   126  124  127 1   
   127  124  136 1   
   128  125  126 2   
   129  125  144 1   
   130  127  128 1   
   131  127  137 1   
   132  127  138 1   
   133  128  129 ar  
   134  128  130 ar  
   135  129  131 ar  
   136  129  139 1   
   137  130  132 ar  
   138  130  140 1   
   139  131  133 ar  
   140  131  141 1   
   141  132  133 ar  
   142  132  142 1   
   143  133  134 1   
   144  134  143 1   
   145  144  145 1   
   146  144  153 1   
   147  145  146 1   
   148  145  148 1   
   149  145  154 1   
   150  146  147 2   
   151  146  159 1   
   152  148  149 1   
   153  148  155 1   
   154  148  156 1   
   155  149  150 1   
   156  149  157 1   
   157  149  158 1   
   158  150  151 1   
   159  150  152 1   
   160  159  160 1   
   161  159  168 1   
   162  160  161 1   
   163  160  163 1   
   164  160  169 1   
   165  161  162 2   
   166  161  174 1   
   167  163  164 1   
   168  163  170 1   
   169  163  171 1   
   170  164  165 1   
   171  164  172 1   
   172  164  173 1   
   173  165  166 1   
   174  165  167 1   
   175  174  175 1   
   176  174  179 1   
   177  175  176 1   
   178  175  177 1   
   179  175  178 1   
   180  181  182 1   
   181  181  183 1   
   182  184  185 1   
   183  184  186 1   
   184  187  188 1   
   185  187  189 1   
   186  190  191 1   
   187  190  192 1   
@<TRIPOS>SUBSTRUCTURE
     1 MOL         1 TEMP              0 ****  ****    0 ROOT
