@<TRIPOS>MOLECULE
MOL
  179   176     1     0     0
SMALL
resp


@<TRIPOS>ATOM
      1 C1         -0.2770   -2.9820    6.3330 c3        1 MOL     -0.438900
      2 C2         -0.0890   -3.1370    4.8100 c         1 MOL      0.720528
      3 O1         -1.0790   -3.3310    4.1150 o         1 MOL     -0.573922
      4 H1         -0.8080   -2.0530    6.5400 hc        1 MOL      0.121157
      5 H2         -0.8560   -3.8230    6.7150 hc        1 MOL      0.121157
      6 H3          0.6970   -2.9590    6.8190 hc        1 MOL      0.121157
      7 N1          1.1300   -3.0560    4.2910 n         1 MOL     -0.484692
      8 C3          1.5090   -3.0560    2.8600 c3        1 MOL     -0.240067
      9 C4          1.3380   -4.4210    2.2070 c         1 MOL      0.693349
     10 O2          1.5480   -5.4390    2.9240 o         1 MOL     -0.551581
     11 C5          2.9640   -2.5460    2.8140 c3        1 MOL     -0.010485
     12 C6          3.1790   -1.7470    1.5740 c         1 MOL      0.550255
     13 O3          3.6410   -0.5910    1.6040 o         1 MOL     -0.716284
     14 O4          2.8550   -2.2040    0.4150 o         1 MOL     -0.716284
     15 H4          1.9260   -2.9620    4.9160 hn        1 MOL      0.300533
     16 H5          0.8890   -2.3120    2.3630 h1        1 MOL      0.265844
     17 H6          3.6710   -3.3600    2.9180 hc        1 MOL      0.057546
     18 H7          3.1480   -1.8590    3.6400 hc        1 MOL      0.057546
     19 N2          1.0730   -4.4640    0.9280 n         1 MOL     -0.696492
     20 C7          1.1570   -5.6270    0.0590 c3        1 MOL      0.534739
     21 C8          2.3480   -5.7270   -0.9100 c         1 MOL      0.125506
     22 O5          2.5400   -6.6340   -1.7640 o         1 MOL     -0.495063
     23 C9         -0.2250   -5.7250   -0.6490 c3        1 MOL     -0.235562
     24 C10        -0.7640   -7.0840   -1.1910 c3        1 MOL      0.264845
     25 C11        -2.1530   -7.0150   -1.8340 c3        1 MOL     -0.089587
     26 C12        -2.4850   -8.4360   -2.3020 c3        1 MOL      0.066485
     27 N3         -3.9800   -8.4740   -2.5390 n4        1 MOL     -0.335975
     28 H8          0.8770   -3.6030    0.4250 hn        1 MOL      0.343970
     29 H9          1.1380   -6.5040    0.7170 h1        1 MOL     -0.006375
     30 H10        -0.2500   -5.0860   -1.5310 hc        1 MOL      0.038004
     31 H11        -0.9900   -5.5000    0.0990 hc        1 MOL      0.038004
     32 H12        -0.7320   -7.7720   -0.3490 hc        1 MOL     -0.052739
     33 H13         0.0060   -7.5540   -1.8040 hc        1 MOL     -0.052739
     34 H14        -2.1000   -6.3550   -2.7020 hc        1 MOL      0.050186
     35 H15        -2.9140   -6.6720   -1.1380 hc        1 MOL      0.050186
     36 H16        -2.2370   -9.0910   -1.4660 hx        1 MOL      0.071638
     37 H17        -1.8650   -8.7030   -3.1520 hx        1 MOL      0.071638
     38 H18        -4.3800   -9.3740   -2.7820 hn        1 MOL      0.265029
     39 H19        -4.4770   -8.3280   -1.6660 hn        1 MOL      0.265029
     40 H20        -4.2120   -7.8830   -3.3190 hn        1 MOL      0.265029
     41 N4          3.1510   -4.6910   -0.9210 n         1 MOL     -0.039046
     42 C13         4.3830   -4.6250   -1.7600 c3        1 MOL      0.103572
     43 C14         5.6490   -4.1770   -1.0270 c         1 MOL      0.426045
     44 O6          6.7220   -4.6340   -1.4160 o         1 MOL     -0.499597
     45 C15         4.0700   -3.6590   -2.9360 c3        1 MOL     -0.108323
     46 C16         3.7560   -2.2520   -2.5030 c         1 MOL      0.796664
     47 O7          2.6280   -1.7620   -2.6490 o         1 MOL     -0.798250
     48 O8          4.5740   -1.5070   -1.9790 o         1 MOL     -0.798250
     49 H21         2.9590   -3.9620   -0.2460 hn        1 MOL      0.065372
     50 H22         4.5950   -5.6150   -2.1720 h1        1 MOL      0.068807
     51 H23         3.1980   -4.0810   -3.4430 hc        1 MOL      0.038463
     52 H24         4.9300   -3.6310   -3.6070 hc        1 MOL      0.038463
     53 N5          5.5200   -3.3010   -0.0290 n         1 MOL     -0.403365
     54 C17         6.5290   -2.9080    0.9560 c3        1 MOL      0.008140
     55 C18         7.1870   -1.5980    0.7480 c         1 MOL      0.406293
     56 O9          8.1940   -1.2620    1.3820 o         1 MOL     -0.580655
     57 H25         4.6630   -2.7640   -0.0440 hn        1 MOL      0.245085
     58 H26         7.2570   -3.6960    1.1630 h1        1 MOL      0.085217
     59 H27         6.0390   -2.8750    1.9280 h1        1 MOL      0.085217
     60 N6          6.7370   -0.8700   -0.2440 n         1 MOL      0.082433
     61 C19         7.3410    0.3760   -0.5990 c3        1 MOL     -0.009511
     62 C20         6.4890    1.5260   -0.2280 c         1 MOL      0.415083
     63 O10         5.2750    1.4160   -0.3010 o         1 MOL     -0.452094
     64 C21         7.5020    0.4760   -2.1470 c3        1 MOL     -0.285629
     65 C22         8.4110   -0.5840   -2.6890 c         1 MOL      0.567689
     66 N7          9.6990   -0.5020   -2.4790 n         1 MOL     -0.728634
     67 O11         8.0550   -1.5590   -3.3150 o         1 MOL     -0.475134
     68 H28         5.8770   -1.0880   -0.7230 hn        1 MOL      0.108523
     69 H29         8.3070    0.5640   -0.1420 h1        1 MOL      0.037759
     70 H30         7.8890    1.4520   -2.4350 hc        1 MOL      0.084474
     71 H31         6.5630    0.4990   -2.7010 hc        1 MOL      0.084474
     72 H32        10.1020    0.2450   -1.9230 hn        1 MOL      0.348165
     73 H33        10.3420   -1.2060   -2.8060 hn        1 MOL      0.348165
     74 N8          7.1000    2.6950   -0.0740 n         1 MOL     -0.332351
     75 C23         6.5640    4.0760   -0.0160 c3        1 MOL     -0.064572
     76 C24         5.1840    4.1390    0.6670 c         1 MOL      0.532588
     77 O12         4.9790    3.7690    1.8260 o         1 MOL     -0.464712
     78 H34         8.1080    2.7300   -0.1070 hn        1 MOL      0.279340
     79 H35         6.5760    4.4870   -1.0240 h1        1 MOL      0.081618
     80 H36         7.3060    4.6400    0.5520 h1        1 MOL      0.081618
     81 N9          4.2300    4.8170   -0.0590 n         1 MOL     -0.538328
     82 C25         2.7850    4.9310    0.3460 c3        1 MOL      0.254936
     83 C26         2.0500    3.6000    0.6820 c         1 MOL      0.453789
     84 O13         2.3600    2.5970    0.0350 o         1 MOL     -0.550397
     85 C27         1.8770    5.7330   -0.6390 c3        1 MOL     -0.107182
     86 C28         2.4280    7.1510   -0.8050 ca        1 MOL      0.057765
     87 C29         2.2090    8.0980    0.2450 ca        1 MOL     -0.201251
     88 C30         3.1220    7.6090   -2.0000 ca        1 MOL     -0.201251
     89 C31         2.6400    9.4300    0.1510 ca        1 MOL     -0.193385
     90 C32         3.6700    8.8960   -2.0210 ca        1 MOL     -0.193385
     91 C33         3.5300    9.8040   -0.9140 ca        1 MOL      0.262215
     92 O14         4.0470   11.0470   -0.9920 oh        1 MOL     -0.432158
     93 H37         4.3520    5.2820   -0.9450 hn        1 MOL      0.257886
     94 H38         2.7650    5.3950    1.3360 h1        1 MOL      0.014435
     95 H39         0.8530    5.6870   -0.2740 hc        1 MOL      0.058125
     96 H40         1.9050    5.2640   -1.6190 hc        1 MOL      0.058125
     97 H41         1.6000    7.7890    1.0890 ha        1 MOL      0.137890
     98 H42         3.3050    6.9260   -2.8220 ha        1 MOL      0.137890
     99 H43         2.5040   10.1450    0.9520 ha        1 MOL      0.146404
    100 H44         4.1620    9.3320   -2.8720 ha        1 MOL      0.146404
    101 H45         4.4950   11.2040   -1.8210 ho        1 MOL      0.353267
    102 N10         1.0330    3.5450    1.5170 n         1 MOL     -0.491532
    103 C34         0.4520    2.4110    2.1390 c3        1 MOL     -0.012204
    104 C35         0.0630    1.1830    1.2750 c         1 MOL      0.659143
    105 O15         0.9180    0.4650    0.7580 o         1 MOL     -0.550827
    106 C36         1.3760    1.9470    3.2510 c3        1 MOL      0.288309
    107 C37         1.0480    0.6130    3.9470 c3        1 MOL     -0.099119
    108 C38         1.5830    3.0010    4.3800 c3        1 MOL     -0.222577
    109 C39        -0.2620    0.6180    4.6770 c3        1 MOL     -0.087070
    110 H46         0.7350    4.4600    1.8370 hn        1 MOL      0.304472
    111 H47        -0.5280    2.7350    2.4960 h1        1 MOL      0.047873
    112 H48         2.3890    1.7890    2.8570 hc        1 MOL      0.017450
    113 H49         1.7200    0.4450    4.7920 hc        1 MOL      0.042358
    114 H50         1.2280   -0.2100    3.2660 hc        1 MOL      0.042358
    115 H51         2.3290    2.5960    5.0700 hc        1 MOL      0.048986
    116 H52         1.9520    3.9580    4.0260 hc        1 MOL      0.048986
    117 H53         0.6160    3.2510    4.8200 hc        1 MOL      0.048986
    118 H54        -1.0620    1.0370    4.0570 hc        1 MOL      0.008926
    119 H55        -0.4800   -0.4100    4.9810 hc        1 MOL      0.008926
    120 H56        -0.2920    1.3260    5.5090 hc        1 MOL      0.008926
    121 N11        -1.2140    0.7020    1.4040 n         1 MOL     -0.547992
    122 C40        -1.7750   -0.5040    0.6870 c3        1 MOL     -0.197413
    123 C41        -3.0440   -0.2800   -0.1210 c         1 MOL      0.826868
    124 O16        -3.3660   -1.0080   -1.0810 o         1 MOL     -0.590745
    125 C42        -1.9650   -1.7160    1.5820 c3        1 MOL      0.339234
    126 O17        -2.8340   -1.3380    2.6740 oh        1 MOL     -0.605418
    127 H57        -1.7890    1.1570    2.1070 hn        1 MOL      0.330099
    128 H58        -1.0120   -0.7650   -0.0530 h1        1 MOL      0.079189
    129 H59        -0.9760   -1.9960    1.9460 h1        1 MOL     -0.031020
    130 H60        -2.4800   -2.4570    0.9700 h1        1 MOL     -0.031020
    131 H61        -2.7350   -2.0280    3.3330 ho        1 MOL      0.391059
    132 N12        -3.8870    0.6790    0.2740 n         1 MOL     -0.683049
    133 C43        -5.2860    0.7750   -0.1620 c3        1 MOL      0.340566
    134 C44        -5.4690    1.0070   -1.7000 c         1 MOL      0.429633
    135 O18        -4.5350    1.5950   -2.2870 o         1 MOL     -0.547900
    136 C45        -5.9750    1.8570    0.7090 c3        1 MOL     -0.238593
    137 H62        -3.5560    1.2750    1.0190 hn        1 MOL      0.291747
    138 H63        -5.7330   -0.1830    0.0760 h1        1 MOL      0.032961
    139 H64        -6.9150    2.2540    0.3250 hc        1 MOL      0.073117
    140 H65        -6.2640    1.4110    1.6660 hc        1 MOL      0.073117
    141 H66        -5.3290    2.7260    0.8400 hc        1 MOL      0.073117
    142 N13        -6.4860    0.5200   -2.3620 n         1 MOL     -0.443374
    143 C46        -7.7850    0.0780   -1.8610 c3        1 MOL      0.352140
    144 C47        -8.9270    0.5950   -2.6910 c         1 MOL      0.257392
    145 O19        -8.8320    0.7360   -3.8540 o         1 MOL     -0.465734
    146 C48        -7.7840   -1.3780   -1.7570 c3        1 MOL     -0.293255
    147 H67        -6.4640    0.7710   -3.3440 hn        1 MOL      0.288765
    148 H68        -7.9640    0.4440   -0.8560 h1        1 MOL     -0.035665
    149 H69        -8.6790   -1.6710   -1.2090 hc        1 MOL      0.080139
    150 H70        -7.8860   -1.7270   -2.7820 hc        1 MOL      0.080139
    151 H71        -6.9120   -1.8600   -1.3000 hc        1 MOL      0.080139
    152 N14       -10.1530    0.6630   -2.1150 n         1 MOL     -0.186045
    153 C49       -10.6670    0.6620   -0.7240 c3        1 MOL     -0.328237
    154 C50       -10.1240    1.8490    0.1790 c         1 MOL      0.430483
    155 O20        -9.7280    1.6320    1.3730 o         1 MOL     -0.503283
    156 C51       -12.2020    0.6670   -0.8530 c3        1 MOL     -0.071877
    157 C52       -12.8920    0.6120    0.4900 c3        1 MOL     -0.124744
    158 C53       -14.4180    0.5160    0.4000 c         1 MOL      0.628988
    159 O21       -14.9730   -0.5950    0.6860 o         1 MOL     -0.639355
    160 O22       -15.0830    1.5370    0.0690 o         1 MOL     -0.639355
    161 H72       -10.8040    0.8070   -2.8670 hn        1 MOL      0.232844
    162 H73       -10.4250   -0.3220   -0.3150 h1        1 MOL      0.193850
    163 H74       -12.4630   -0.2150   -1.4330 hc        1 MOL      0.065558
    164 H75       -12.4510    1.6450   -1.2770 hc        1 MOL      0.065558
    165 H76       -12.6410    1.4940    1.0680 hc        1 MOL      0.048703
    166 H77       -12.5350   -0.2560    1.0570 hc        1 MOL      0.048703
    167 N15        -9.9640    3.0940   -0.3580 n         1 MOL     -0.174952
    168 C54        -9.2700    4.1650    0.3340 c3        1 MOL     -0.272249
    169 H78       -10.0000    4.8280    0.8000 h1        1 MOL      0.115959
    170 H79        -8.6220    3.7430    1.1020 h1        1 MOL      0.115959
    171 H80        -8.6700    4.7300   -0.3790 h1        1 MOL      0.115959
    172 H81       -10.2660    3.2370   -1.3200 hn        1 MOL      0.242033
    173 Ca1         2.9810    0.2170   -0.8710 Ca        1 MOL      1.754813
    174 O23         0.7360    1.2370   -2.1000 oh        1 MOL     -0.833419
    175 H82         0.7840    1.2420   -3.0530 ho        1 MOL      0.415840
    176 H83        -0.1860    1.4100   -1.9010 ho        1 MOL      0.415840
    177 O24         3.6920    1.7540   -2.8310 oh        1 MOL     -0.833419
    178 H84         4.4380    1.5060   -3.3830 ho        1 MOL      0.415840
    179 H85         3.1720    2.3350   -3.3930 ho        1 MOL      0.415840
@<TRIPOS>BOND
     1    1    2 1   
     2    1    4 1   
     3    1    5 1   
     4    1    6 1   
     5    2    3 2   
     6    2    7 1   
     7    7    8 1   
     8    7   15 1   
     9    8    9 1   
    10    8   11 1   
    11    8   16 1   
    12    9   10 2   
    13    9   19 1   
    14   11   12 1   
    15   11   17 1   
    16   11   18 1   
    17   12   13 1   
    18   12   14 1   
    19   19   20 1   
    20   19   28 1   
    21   20   21 1   
    22   20   23 1   
    23   20   29 1   
    24   21   22 2   
    25   21   41 1   
    26   23   24 1   
    27   23   30 1   
    28   23   31 1   
    29   24   25 1   
    30   24   32 1   
    31   24   33 1   
    32   25   26 1   
    33   25   34 1   
    34   25   35 1   
    35   26   27 1   
    36   26   36 1   
    37   26   37 1   
    38   27   38 1   
    39   27   39 1   
    40   27   40 1   
    41   41   42 1   
    42   41   49 1   
    43   42   43 1   
    44   42   45 1   
    45   42   50 1   
    46   43   44 2   
    47   43   53 1   
    48   45   46 1   
    49   45   51 1   
    50   45   52 1   
    51   46   47 1   
    52   46   48 1   
    53   53   54 1   
    54   53   57 1   
    55   54   55 1   
    56   54   58 1   
    57   54   59 1   
    58   55   56 2   
    59   55   60 1   
    60   60   61 1   
    61   60   68 1   
    62   61   62 1   
    63   61   64 1   
    64   61   69 1   
    65   62   63 2   
    66   62   74 1   
    67   64   65 1   
    68   64   70 1   
    69   64   71 1   
    70   65   66 1   
    71   65   67 2   
    72   66   72 1   
    73   66   73 1   
    74   74   75 1   
    75   74   78 1   
    76   75   76 1   
    77   75   79 1   
    78   75   80 1   
    79   76   77 2   
    80   76   81 1   
    81   81   82 1   
    82   81   93 1   
    83   82   83 1   
    84   82   85 1   
    85   82   94 1   
    86   83   84 2   
    87   83  102 1   
    88   85   86 1   
    89   85   95 1   
    90   85   96 1   
    91   86   87 ar  
    92   86   88 ar  
    93   87   89 ar  
    94   87   97 1   
    95   88   90 ar  
    96   88   98 1   
    97   89   91 ar  
    98   89   99 1   
    99   90   91 ar  
   100   90  100 1   
   101   91   92 1   
   102   92  101 1   
   103  102  103 1   
   104  102  110 1   
   105  103  104 1   
   106  103  106 1   
   107  103  111 1   
   108  104  105 2   
   109  104  121 1   
   110  106  107 1   
   111  106  108 1   
   112  106  112 1   
   113  107  109 1   
   114  107  113 1   
   115  107  114 1   
   116  108  115 1   
   117  108  116 1   
   118  108  117 1   
   119  109  118 1   
   120  109  119 1   
   121  109  120 1   
   122  121  122 1   
   123  121  127 1   
   124  122  123 1   
   125  122  125 1   
   126  122  128 1   
   127  123  124 2   
   128  123  132 1   
   129  125  126 1   
   130  125  129 1   
   131  125  130 1   
   132  126  131 1   
   133  132  133 1   
   134  132  137 1   
   135  133  134 1   
   136  133  136 1   
   137  133  138 1   
   138  134  135 2   
   139  134  142 1   
   140  136  139 1   
   141  136  140 1   
   142  136  141 1   
   143  142  143 1   
   144  142  147 1   
   145  143  144 1   
   146  143  146 1   
   147  143  148 1   
   148  144  145 2   
   149  144  152 1   
   150  146  149 1   
   151  146  150 1   
   152  146  151 1   
   153  152  153 1   
   154  152  161 1   
   155  153  154 1   
   156  153  156 1   
   157  153  162 1   
   158  154  155 2   
   159  154  167 1   
   160  156  157 1   
   161  156  163 1   
   162  156  164 1   
   163  157  158 1   
   164  157  165 1   
   165  157  166 1   
   166  158  159 1   
   167  158  160 1   
   168  167  168 1   
   169  167  172 1   
   170  168  169 1   
   171  168  170 1   
   172  168  171 1   
   173  174  175 1   
   174  174  176 1   
   175  177  178 1   
   176  177  179 1   
@<TRIPOS>SUBSTRUCTURE
     1 MOL         1 TEMP              0 ****  ****    0 ROOT
