@<TRIPOS>MOLECULE
MOL
  186   183     1     0     0
SMALL
resp


@<TRIPOS>ATOM
      1 C1          6.5110   -4.6200    3.3850 c3        1 MOL     -0.384252
      2 C2          6.4140   -3.5160    2.2400 c         1 MOL      0.769100
      3 O1          5.5070   -3.5070    1.3880 o         1 MOL     -0.653274
      4 H1          5.8320   -4.3620    4.1970 hc        1 MOL      0.095934
      5 H2          6.2350   -5.5930    2.9770 hc        1 MOL      0.095934
      6 H3          7.5320   -4.6620    3.7650 hc        1 MOL      0.095934
      7 N1          7.3830   -2.5930    2.3320 n         1 MOL     -0.695487
      8 C3          7.6320   -1.5300    1.3550 c3        1 MOL      0.271962
      9 C4          6.3070   -0.7060    1.2120 c         1 MOL      0.244411
     10 O2          5.7170   -0.6010    0.1470 o         1 MOL     -0.614645
     11 C5          8.2150   -2.0500    0.0860 c3        1 MOL     -0.054471
     12 C6          7.5580   -3.1370   -0.7130 c         1 MOL      0.779351
     13 O3          6.4650   -2.9440   -1.2460 o         1 MOL     -0.744557
     14 O4          8.2370   -4.1520   -0.9790 o         1 MOL     -0.744557
     15 H4          7.9510   -2.6210    3.1640 hn        1 MOL      0.336529
     16 H5          8.3400   -0.7940    1.7370 h1        1 MOL      0.022815
     17 H6          9.2580   -2.2810    0.3110 hc        1 MOL     -0.007900
     18 H7          8.3080   -1.1420   -0.5120 hc        1 MOL     -0.007900
     19 N2          5.9950   -0.0700    2.3000 n         1 MOL     -0.323667
     20 C7          5.1120    1.0730    2.5740 c3        1 MOL      0.026379
     21 C8          5.5150    2.2830    1.7640 c         1 MOL      0.300900
     22 O5          5.4730    3.4280    2.2320 o         1 MOL     -0.522281
     23 C9          3.7200    0.5230    2.4460 c3        1 MOL      0.061318
     24 C10         2.6220    1.6190    2.4030 c3        1 MOL      0.063067
     25 C11         3.3730   -0.5490    3.4940 c3        1 MOL     -0.398440
     26 C12         2.4920    2.5700    3.5760 c3        1 MOL     -0.449401
     27 H8          6.5910   -0.4050    3.0510 hn        1 MOL      0.228525
     28 H9          5.1550    1.3400    3.6270 h1        1 MOL      0.062670
     29 H10         3.6810    0.0750    1.4490 hc        1 MOL      0.196816
     30 H11         1.6190    1.1850    2.3850 hc        1 MOL      0.086482
     31 H12         2.7210    2.1490    1.4590 hc        1 MOL      0.086482
     32 H13         3.3730   -0.1340    4.4910 hc        1 MOL      0.087210
     33 H14         2.3910   -0.9910    3.2750 hc        1 MOL      0.087210
     34 H15         3.9960   -1.4450    3.3930 hc        1 MOL      0.087210
     35 H16         1.9430    2.1080    4.3950 hc        1 MOL      0.100920
     36 H17         3.4940    2.9310    3.8030 hc        1 MOL      0.100920
     37 H18         2.0260    3.5130    3.2880 hc        1 MOL      0.100920
     38 N3          5.8200    2.0990    0.4740 n         1 MOL     -0.182002
     39 C13         6.5150    3.1650   -0.3620 c3        1 MOL     -0.022877
     40 C14         5.6520    4.3700   -0.7650 c         1 MOL      0.457451
     41 O6          6.0930    5.4830   -0.7500 o         1 MOL     -0.512671
     42 C15         7.1820    2.5710   -1.5960 c3        1 MOL     -0.490717
     43 C16         7.7270    3.6690   -2.5400 c         1 MOL      0.796311
     44 O7          7.0750    3.9740   -3.5610 o         1 MOL     -0.736051
     45 O8          8.8530    4.2050   -2.3820 o         1 MOL     -0.736051
     46 H19         5.7390    1.1330    0.1790 hn        1 MOL      0.383292
     47 H20         7.3500    3.5870    0.2000 h1        1 MOL      0.098565
     48 H21         6.5790    1.8350   -2.1380 hc        1 MOL      0.131878
     49 H22         8.0850    2.0430   -1.3000 hc        1 MOL      0.131878
     50 N4          4.3670    4.2560   -1.1610 n         1 MOL     -0.351635
     51 C17         3.6900    3.0980   -1.5790 c3        1 MOL      0.187540
     52 C18         2.5870    3.2340   -2.6980 c         1 MOL      0.634987
     53 O9          2.1510    4.3330   -2.9820 o         1 MOL     -0.618159
     54 H23         3.9570    5.1690   -1.3230 hn        1 MOL      0.232855
     55 H24         3.2360    2.6850   -0.6740 h1        1 MOL     -0.004888
     56 H25         4.3890    2.3990   -2.0470 h1        1 MOL     -0.004888
     57 N5          2.0460    2.1950   -3.3270 n         1 MOL     -0.598092
     58 C19         2.3030    0.8290   -2.9110 c3        1 MOL      0.321173
     59 C20         2.3040    0.4640   -1.4110 c         1 MOL      0.109469
     60 O10         3.1410   -0.2710   -0.8880 o         1 MOL     -0.520384
     61 C21         3.5220    0.3040   -3.7460 c3        1 MOL     -0.269036
     62 C22         3.5330   -1.1890   -3.8520 c         1 MOL      0.771297
     63 O11         2.6780   -1.6230   -4.6820 o         1 MOL     -0.725262
     64 O12         4.2620   -1.9040   -3.1310 o         1 MOL     -0.725262
     65 H26         1.3890    2.3470   -4.0810 hn        1 MOL      0.330599
     66 H27         1.4560    0.2700   -3.3150 h1        1 MOL      0.052671
     67 H28         4.4700    0.5820   -3.2930 hc        1 MOL      0.064433
     68 H29         3.5100    0.6620   -4.7730 hc        1 MOL      0.064433
     69 N6          1.2810    0.7950   -0.6460 n         1 MOL      0.021166
     70 C23         0.0220    1.4580   -0.9130 c3        1 MOL     -0.105247
     71 C24        -0.2660    2.8610   -0.1690 c         1 MOL      0.507789
     72 O13         0.6610    3.2940    0.5590 o         1 MOL     -0.514685
     73 H30         1.4270    0.5720    0.3210 hn        1 MOL      0.033117
     74 H31        -0.7520    0.7460   -0.6400 h1        1 MOL      0.045944
     75 H32        -0.1080    1.6780   -1.9710 h1        1 MOL      0.045944
     76 N7         -1.4120    3.4990   -0.3640 n         1 MOL     -0.510377
     77 C25        -1.8760    4.7250    0.3200 c3        1 MOL      0.117735
     78 C26        -2.7090    4.4510    1.6200 c         1 MOL      0.421531
     79 O14        -2.9760    5.4130    2.2790 o         1 MOL     -0.494269
     80 C27        -2.3950    5.9060   -0.5360 c3        1 MOL      0.146589
     81 C28        -1.7500    6.0900   -1.8940 c3        1 MOL     -0.191704
     82 C29        -1.8350    7.4830   -2.4970 c         1 MOL      0.703160
     83 N8         -1.0220    8.4950   -2.1560 n         1 MOL     -0.809931
     84 O15        -2.6890    7.6480   -3.3420 o         1 MOL     -0.580904
     85 H33        -1.9310    3.1570   -1.1580 hn        1 MOL      0.307153
     86 H34        -0.9690    5.2150    0.6940 h1        1 MOL      0.118412
     87 H35        -2.2160    6.8210    0.0280 hc        1 MOL     -0.036262
     88 H36        -3.4650    5.9090   -0.7410 hc        1 MOL     -0.036262
     89 H37        -2.1620    5.3200   -2.5480 hc        1 MOL      0.054610
     90 H38        -0.6880    5.8520   -1.8190 hc        1 MOL      0.054610
     91 H39        -0.3000    8.3320   -1.4830 hn        1 MOL      0.369154
     92 H40        -1.1580    9.4170   -2.5610 hn        1 MOL      0.369154
     93 N9         -3.0130    3.2100    1.9460 n         1 MOL     -0.500396
     94 C30        -3.5100    2.7700    3.2710 c3        1 MOL     -0.279387
     95 C31        -4.6050    1.7380    3.2760 c         1 MOL      0.577266
     96 O16        -4.9540    1.2030    4.3420 o         1 MOL     -0.533379
     97 C32        -2.2470    2.2210    4.0510 c3        1 MOL      0.257078
     98 C33        -1.2030    3.3310    4.3520 c3        1 MOL     -0.225676
     99 C34        -1.6130    1.0870    3.2480 c3        1 MOL     -0.225676
    100 H41        -2.6010    2.4840    1.3720 hn        1 MOL      0.247726
    101 H42        -3.9300    3.6210    3.8090 h1        1 MOL      0.193758
    102 H43        -2.6210    1.7850    4.9700 hc        1 MOL      0.000399
    103 H44        -0.5620    2.8690    5.1040 hc        1 MOL      0.062881
    104 H45        -0.5990    3.5240    3.4600 hc        1 MOL      0.062881
    105 H46        -1.7700    4.1700    4.7390 hc        1 MOL      0.062881
    106 H47        -2.2430    0.2060    3.1720 hc        1 MOL      0.062881
    107 H48        -1.1280    1.2710    2.2900 hc        1 MOL      0.062881
    108 H49        -0.8360    0.5490    3.7960 hc        1 MOL      0.062881
    109 N10        -5.1930    1.4770    2.1800 n         1 MOL     -0.403607
    110 C35        -6.5700    0.9570    2.1810 c3        1 MOL     -0.020424
    111 C36        -6.8730   -0.2800    1.2530 c         1 MOL      0.562250
    112 O17        -7.9160   -0.9230    1.3120 o         1 MOL     -0.556935
    113 C37        -7.4740    2.1310    1.8300 c3        1 MOL     -0.267327
    114 C38        -7.4120    3.2180    2.8790 c         1 MOL      0.672835
    115 N11        -6.6540    4.2180    2.6300 n         1 MOL     -0.723603
    116 O18        -8.1940    3.2530    3.8470 o         1 MOL     -0.569139
    117 H50        -4.7540    1.8700    1.3600 hn        1 MOL      0.302027
    118 H51        -6.8940    0.5960    3.1540 h1        1 MOL      0.131347
    119 H52        -8.5200    1.8710    1.6800 hc        1 MOL      0.088037
    120 H53        -7.2140    2.4870    0.8290 hc        1 MOL      0.088037
    121 H54        -6.0890    4.2880    1.7870 hn        1 MOL      0.349085
    122 H55        -6.6450    5.0230    3.2440 hn        1 MOL      0.349085
    123 N12        -5.8910   -0.6820    0.4760 n         1 MOL     -0.395579
    124 C39        -5.9940   -1.8690   -0.4760 c3        1 MOL      0.103748
    125 C40        -4.7180   -2.7370   -0.5780 c         1 MOL      0.542825
    126 O19        -3.6270   -2.1840   -0.6750 o         1 MOL     -0.479506
    127 C41        -6.2810   -1.2690   -1.8860 c3        1 MOL     -0.031972
    128 C42        -7.6740   -0.6300   -2.1560 ca        1 MOL     -0.059191
    129 C43        -7.9040    0.7320   -2.2480 ca        1 MOL     -0.012927
    130 C44        -8.7650   -1.4270   -2.2790 ca        1 MOL     -0.012927
    131 C45        -9.1120    1.3170   -2.4730 ca        1 MOL     -0.346696
    132 C46       -10.0420   -0.9430   -2.5340 ca        1 MOL     -0.346696
    133 C47       -10.2110    0.4540   -2.6560 ca        1 MOL      0.404813
    134 O20       -11.5040    0.8720   -2.7760 oh        1 MOL     -0.521527
    135 H56        -5.0270   -0.1830    0.5750 hn        1 MOL      0.207586
    136 H57        -6.8430   -2.5030   -0.2390 h1        1 MOL      0.057098
    137 H58        -6.1450   -2.1090   -2.5670 hc        1 MOL      0.054390
    138 H59        -5.5070   -0.5020   -1.9540 hc        1 MOL      0.054390
    139 H60        -7.0520    1.3830   -2.1190 ha        1 MOL      0.087238
    140 H61        -8.6290   -2.4960   -2.2980 ha        1 MOL      0.087238
    141 H62        -9.2470    2.3910   -2.5270 ha        1 MOL      0.159156
    142 H63       -10.9370   -1.5620   -2.5420 ha        1 MOL      0.159156
    143 H64       -12.1290    0.1340   -2.8480 ho        1 MOL      0.361429
    144 N13        -4.8300   -4.0670   -0.5680 n         1 MOL     -0.754190
    145 C48        -3.7250   -5.0250   -0.9320 c3        1 MOL      0.274350
    146 C49        -2.4250   -5.0320   -0.0170 c         1 MOL      0.214438
    147 O21        -1.5300   -5.7890   -0.3040 o         1 MOL     -0.450030
    148 C50        -3.4180   -4.9870   -2.4400 c3        1 MOL      0.004102
    149 C51        -4.7650   -5.1770   -3.2190 c3        1 MOL     -0.325078
    150 C52        -4.4020   -5.5960   -4.5890 c         1 MOL      0.763230
    151 O22        -4.8740   -6.6920   -5.0020 o         1 MOL     -0.743451
    152 O23        -3.7090   -4.8760   -5.2860 o         1 MOL     -0.743451
    153 H65        -5.7850   -4.3980   -0.6410 hn        1 MOL      0.361256
    154 H66        -4.0850   -6.0250   -0.7220 h1        1 MOL      0.045833
    155 H67        -2.7480   -5.8130   -2.6720 hc        1 MOL      0.078303
    156 H68        -3.0390   -3.9990   -2.6860 hc        1 MOL      0.078303
    157 H69        -5.3490   -4.2730   -3.0740 hc        1 MOL      0.033434
    158 H70        -5.2700   -5.9850   -2.6970 hc        1 MOL      0.033434
    159 N14        -2.3320   -4.2170    1.0380 n         1 MOL     -0.260196
    160 C53        -1.0650   -4.0690    1.8150 c3        1 MOL     -0.203870
    161 C54        -1.0110   -4.7580    3.1290 c         1 MOL      0.492465
    162 O24         0.0630   -4.9140    3.6620 o         1 MOL     -0.538706
    163 C55        -0.6880   -2.5820    1.9230 c3        1 MOL      0.127995
    164 C56        -0.2560   -1.9110    0.5950 c3        1 MOL      0.024887
    165 C57         1.2030   -2.4070    0.2700 c         1 MOL      0.576991
    166 O25         2.1820   -2.3320    1.0330 o         1 MOL     -0.632558
    167 O26         1.4070   -2.8580   -0.8680 o         1 MOL     -0.632558
    168 H71        -3.0290   -3.5070    1.1960 hn        1 MOL      0.240426
    169 H72        -0.3410   -4.5900    1.1810 h1        1 MOL      0.217917
    170 H73         0.0870   -2.4200    2.6720 hc        1 MOL     -0.036307
    171 H74        -1.5920   -2.0660    2.2350 hc        1 MOL     -0.036307
    172 H75        -0.2670   -0.8570    0.8790 hc        1 MOL     -0.007071
    173 H76        -0.9890   -2.0420   -0.2070 hc        1 MOL     -0.007071
    174 N15        -2.1130   -5.2720    3.6580 n         1 MOL     -0.265739
    175 C58        -2.2590   -5.9270    5.0110 c3        1 MOL     -0.054656
    176 H77        -2.9160   -5.3230    5.6370 h1        1 MOL      0.052771
    177 H78        -2.6880   -6.9210    4.8890 h1        1 MOL      0.052771
    178 H79        -1.2810   -6.0070    5.4840 h1        1 MOL      0.052771
    179 H80        -3.0220   -5.0080    3.2900 hn        1 MOL      0.206880
    180 Ca1         4.0730   -2.6890   -0.7000 Ca        1 MOL      1.743675
    181 O27         3.3160   -4.9510    0.6810 oh        1 MOL     -0.828761
    182 H81         3.3780   -5.9070    0.7120 ho        1 MOL      0.403589
    183 H82         3.2500   -4.6850    1.5960 ho        1 MOL      0.403589
    184 O28         3.4280   -4.7840   -2.2660 oh        1 MOL     -0.828761
    185 H83         3.9060   -5.0240   -3.0600 ho        1 MOL      0.403589
    186 H84         3.0880   -5.6160   -1.9430 ho        1 MOL      0.403589
@<TRIPOS>BOND
     1    1    2 1   
     2    1    4 1   
     3    1    5 1   
     4    1    6 1   
     5    2    3 2   
     6    2    7 1   
     7    7    8 1   
     8    7   15 1   
     9    8    9 1   
    10    8   11 1   
    11    8   16 1   
    12    9   10 2   
    13    9   19 1   
    14   11   12 1   
    15   11   17 1   
    16   11   18 1   
    17   12   13 1   
    18   12   14 1   
    19   19   20 1   
    20   19   27 1   
    21   20   21 1   
    22   20   23 1   
    23   20   28 1   
    24   21   22 2   
    25   21   38 1   
    26   23   24 1   
    27   23   25 1   
    28   23   29 1   
    29   24   26 1   
    30   24   30 1   
    31   24   31 1   
    32   25   32 1   
    33   25   33 1   
    34   25   34 1   
    35   26   35 1   
    36   26   36 1   
    37   26   37 1   
    38   38   39 1   
    39   38   46 1   
    40   39   40 1   
    41   39   42 1   
    42   39   47 1   
    43   40   41 2   
    44   40   50 1   
    45   42   43 1   
    46   42   48 1   
    47   42   49 1   
    48   43   44 1   
    49   43   45 1   
    50   50   51 1   
    51   50   54 1   
    52   51   52 1   
    53   51   55 1   
    54   51   56 1   
    55   52   53 2   
    56   52   57 1   
    57   57   58 1   
    58   57   65 1   
    59   58   59 1   
    60   58   61 1   
    61   58   66 1   
    62   59   60 2   
    63   59   69 1   
    64   61   62 1   
    65   61   67 1   
    66   61   68 1   
    67   62   63 1   
    68   62   64 1   
    69   69   70 1   
    70   69   73 1   
    71   70   71 1   
    72   70   74 1   
    73   70   75 1   
    74   71   72 2   
    75   71   76 1   
    76   76   77 1   
    77   76   85 1   
    78   77   78 1   
    79   77   80 1   
    80   77   86 1   
    81   78   79 2   
    82   78   93 1   
    83   80   81 1   
    84   80   87 1   
    85   80   88 1   
    86   81   82 1   
    87   81   89 1   
    88   81   90 1   
    89   82   83 1   
    90   82   84 2   
    91   83   91 1   
    92   83   92 1   
    93   93   94 1   
    94   93  100 1   
    95   94   95 1   
    96   94   97 1   
    97   94  101 1   
    98   95   96 2   
    99   95  109 1   
   100   97   98 1   
   101   97   99 1   
   102   97  102 1   
   103   98  103 1   
   104   98  104 1   
   105   98  105 1   
   106   99  106 1   
   107   99  107 1   
   108   99  108 1   
   109  109  110 1   
   110  109  117 1   
   111  110  111 1   
   112  110  113 1   
   113  110  118 1   
   114  111  112 2   
   115  111  123 1   
   116  113  114 1   
   117  113  119 1   
   118  113  120 1   
   119  114  115 1   
   120  114  116 2   
   121  115  121 1   
   122  115  122 1   
   123  123  124 1   
   124  123  135 1   
   125  124  125 1   
   126  124  127 1   
   127  124  136 1   
   128  125  126 2   
   129  125  144 1   
   130  127  128 1   
   131  127  137 1   
   132  127  138 1   
   133  128  129 ar  
   134  128  130 ar  
   135  129  131 ar  
   136  129  139 1   
   137  130  132 ar  
   138  130  140 1   
   139  131  133 ar  
   140  131  141 1   
   141  132  133 ar  
   142  132  142 1   
   143  133  134 1   
   144  134  143 1   
   145  144  145 1   
   146  144  153 1   
   147  145  146 1   
   148  145  148 1   
   149  145  154 1   
   150  146  147 2   
   151  146  159 1   
   152  148  149 1   
   153  148  155 1   
   154  148  156 1   
   155  149  150 1   
   156  149  157 1   
   157  149  158 1   
   158  150  151 1   
   159  150  152 1   
   160  159  160 1   
   161  159  168 1   
   162  160  161 1   
   163  160  163 1   
   164  160  169 1   
   165  161  162 2   
   166  161  174 1   
   167  163  164 1   
   168  163  170 1   
   169  163  171 1   
   170  164  165 1   
   171  164  172 1   
   172  164  173 1   
   173  165  166 1   
   174  165  167 1   
   175  174  175 1   
   176  174  179 1   
   177  175  176 1   
   178  175  177 1   
   179  175  178 1   
   180  181  182 1   
   181  181  183 1   
   182  184  185 1   
   183  184  186 1   
@<TRIPOS>SUBSTRUCTURE
     1 MOL         1 TEMP              0 ****  ****    0 ROOT
