@<TRIPOS>MOLECULE
MOL
  181   177     1     0     0
SMALL
resp


@<TRIPOS>ATOM
      1 C1          6.0290   -6.4690    4.6090 c3        1 MOL     -0.193848
      2 C2          5.5110   -5.1590    3.9880 c         1 MOL      0.684984
      3 O1          4.5730   -4.6300    4.5650 o         1 MOL     -0.560732
      4 H1          5.5370   -7.3160    4.1310 hc        1 MOL      0.036579
      5 H2          7.1060   -6.5430    4.4580 hc        1 MOL      0.036579
      6 H3          5.8100   -6.4770    5.6760 hc        1 MOL      0.036579
      7 N1          6.0290   -4.6890    2.8210 n         1 MOL     -0.676128
      8 C3          7.0080   -5.2720    1.9550 c3        1 MOL      0.377980
      9 C4          6.4800   -5.4540    0.5600 c         1 MOL      0.582341
     10 O2          5.2470   -5.3300    0.4270 o         1 MOL     -0.526647
     11 C5          8.3220   -4.4250    1.9880 c3        1 MOL     -0.168296
     12 C6          8.0600   -2.9460    1.6540 c         1 MOL      0.625778
     13 O3          8.1390   -2.5750    0.4500 o         1 MOL     -0.675017
     14 O4          7.6500   -2.1990    2.5490 o         1 MOL     -0.675017
     15 H4          5.5740   -3.8660    2.4420 hn        1 MOL      0.423164
     16 H5          7.3000   -6.3020    2.1850 h1        1 MOL     -0.046393
     17 H6          9.0810   -4.8690    1.3480 hc        1 MOL     -0.008772
     18 H7          8.7860   -4.5480    2.9700 hc        1 MOL     -0.008772
     19 N2          7.2980   -5.8640   -0.3640 n         1 MOL     -0.569170
     20 C7          7.0250   -6.0520   -1.7830 c3        1 MOL      0.280073
     21 C8          6.2500   -4.9530   -2.5150 c         1 MOL      0.524343
     22 O5          5.7590   -5.1670   -3.5980 o         1 MOL     -0.557160
     23 C9          6.4170   -7.4550   -1.9570 c3        1 MOL     -0.423173
     24 H8          8.2660   -5.9580   -0.0880 hn        1 MOL      0.305780
     25 H9          7.9300   -6.0550   -2.3800 h1        1 MOL      0.008787
     26 H10         6.8450   -8.1130   -1.1950 hc        1 MOL      0.115646
     27 H11         5.3800   -7.3920   -1.6440 hc        1 MOL      0.115646
     28 H12         6.4160   -7.8410   -2.9730 hc        1 MOL      0.115646
     29 N3          6.2430   -3.7070   -1.9800 n         1 MOL     -0.195538
     30 C10         5.5110   -2.5560   -2.5040 c3        1 MOL     -0.090637
     31 C11         6.2970   -1.2280   -2.7600 c         1 MOL      0.563016
     32 O6          7.4670   -1.0130   -2.3500 o         1 MOL     -0.608578
     33 C12         4.3530   -2.3240   -1.4890 c3        1 MOL     -0.179918
     34 C13         4.7510   -1.7360   -0.1050 c         1 MOL      0.721620
     35 O7          5.4640   -0.7560   -0.0160 o         1 MOL     -0.660685
     36 O8          4.2380   -2.2580    0.8760 o         1 MOL     -0.660685
     37 H13         6.6150   -3.5420   -1.0510 hn        1 MOL     -0.061769
     38 H14         4.9900   -2.9040   -3.3960 h1        1 MOL      0.093202
     39 H15         3.9300   -3.2970   -1.2320 hc        1 MOL      0.087784
     40 H16         3.5320   -1.7470   -1.8970 hc        1 MOL      0.087784
     41 N4          5.5790   -0.2270   -3.3850 n         1 MOL     -0.472968
     42 C14         6.0360    1.1390   -3.7830 c3        1 MOL     -0.020224
     43 C15         6.0850    2.1330   -2.5390 c         1 MOL      0.656882
     44 O9          6.3270    1.7670   -1.3810 o         1 MOL     -0.604285
     45 H17         4.6470   -0.4880   -3.6520 hn        1 MOL      0.318803
     46 H18         5.3260    1.4630   -4.5390 h1        1 MOL      0.070459
     47 H19         7.0390    1.1070   -4.2110 h1        1 MOL      0.070459
     48 N5          5.8810    3.4380   -2.8800 n         1 MOL     -0.776702
     49 C16         5.4970    4.5370   -1.9880 c3        1 MOL      0.544057
     50 C17         4.1690    4.3690   -1.2990 c         1 MOL      0.492442
     51 O10         3.2550    3.5860   -1.7250 o         1 MOL     -0.507659
     52 C18         5.5730    5.8200   -2.8490 c3        1 MOL     -0.321101
     53 C19         5.5490    7.0880   -1.9700 c         1 MOL      0.579740
     54 N6          4.9290    8.0610   -2.5320 n         1 MOL     -0.701071
     55 O11         5.9940    7.1690   -0.8340 o         1 MOL     -0.542543
     56 H20         5.8570    3.6480   -3.8700 hn        1 MOL      0.307186
     57 H21         6.3030    4.6650   -1.2580 h1        1 MOL     -0.076183
     58 H22         4.7250    5.8650   -3.5230 hc        1 MOL      0.092788
     59 H23         6.5430    5.7710   -3.3440 hc        1 MOL      0.092788
     60 H24         4.6890    8.1300   -3.5050 hn        1 MOL      0.357508
     61 H25         4.8480    8.8850   -1.9620 hn        1 MOL      0.357508
     62 N7          3.9810    4.9960   -0.1070 n         1 MOL     -0.592284
     63 C20         2.7110    4.9620    0.7200 c3        1 MOL      0.358870
     64 C21         1.9110    6.2390    0.5710 c         1 MOL      0.562165
     65 O12         2.4090    7.1980   -0.0040 o         1 MOL     -0.557369
     66 H26         4.7590    5.4380    0.3550 hn        1 MOL      0.283052
     67 H27         2.9040    4.8600    1.7880 h1        1 MOL     -0.013568
     68 H28         2.1250    4.1090    0.3820 h1        1 MOL     -0.013568
     69 N8          0.6910    6.2860    1.1600 n         1 MOL     -0.567585
     70 C22         0.0410    5.3450    2.0400 c3        1 MOL      0.031715
     71 C23        -1.0750    4.4550    1.3910 c         1 MOL      0.495076
     72 O13        -1.9400    4.9950    0.7370 o         1 MOL     -0.509792
     73 C24        -0.3540    6.0930    3.3490 c3        1 MOL      0.345564
     74 C25        -0.9610    5.1710    4.3810 c3        1 MOL     -0.376879
     75 O14         0.8040    6.7610    3.8370 oh        1 MOL     -0.653160
     76 H29         0.1930    7.1590    1.0220 hn        1 MOL      0.327461
     77 H30         0.8150    4.6380    2.3290 h1        1 MOL      0.052759
     78 H31        -1.0740    6.8610    3.0980 h1        1 MOL      0.013261
     79 H32         0.6340    7.0880    4.7270 ho        1 MOL      0.391853
     80 H33        -1.9680    4.9330    4.0470 hc        1 MOL      0.107275
     81 H34        -0.3120    4.3040    4.5240 hc        1 MOL      0.107275
     82 H35        -1.1250    5.7230    5.3080 hc        1 MOL      0.107275
     83 N9         -0.9000    3.1300    1.4550 n         1 MOL     -0.266998
     84 C26        -1.8510    2.0370    1.0300 c3        1 MOL     -0.138825
     85 C27        -2.7680    1.6840    2.1260 c         1 MOL      0.510217
     86 O15        -2.3060    1.4680    3.2580 o         1 MOL     -0.598359
     87 C28        -1.2600    0.8300    0.0900 c3        1 MOL      0.142763
     88 C29        -0.8500   -0.4310    0.8970 c3        1 MOL     -0.185702
     89 C30        -0.1530    1.4000   -0.8220 c3        1 MOL     -0.315340
     90 C31        -0.3220   -1.5520   -0.1240 c3        1 MOL     -0.113452
     91 H36        -0.1670    2.8260    2.0690 hn        1 MOL      0.203627
     92 H37        -2.4990    2.5740    0.3250 h1        1 MOL      0.159039
     93 H38        -2.1290    0.6140   -0.5360 hc        1 MOL      0.049436
     94 H39        -1.7480   -0.9060    1.2920 hc        1 MOL      0.083813
     95 H40        -0.0370   -0.2200    1.5870 hc        1 MOL      0.083813
     96 H41         0.1190    0.7920   -1.6800 hc        1 MOL      0.081297
     97 H42        -0.4570    2.3920   -1.1760 hc        1 MOL      0.081297
     98 H43         0.7760    1.4800   -0.2470 hc        1 MOL      0.081297
     99 H44        -0.3040   -2.5260    0.3490 hc        1 MOL      0.032024
    100 H45        -1.0760   -1.6530   -0.9200 hc        1 MOL      0.032024
    101 H46         0.6340   -1.2210   -0.5360 hc        1 MOL      0.032024
    102 N10        -4.0850    1.4820    1.9180 n         1 MOL     -0.391775
    103 C32        -4.9090    1.8920    0.7730 c3        1 MOL      0.162367
    104 C33        -6.1770    0.9610    0.6830 c         1 MOL      0.367380
    105 O16        -6.6230    0.4150    1.6710 o         1 MOL     -0.449960
    106 C34        -5.2910    3.3710    0.7720 c3        1 MOL      0.109065
    107 C35        -5.8970    3.9190    2.1020 c         1 MOL      0.605509
    108 O17        -5.9430    5.1800    2.2070 o         1 MOL     -0.681199
    109 O18        -6.3980    3.1110    2.9690 o         1 MOL     -0.681199
    110 H47        -4.5960    1.0870    2.6980 hn        1 MOL      0.292165
    111 H48        -4.3260    1.6790   -0.1210 h1        1 MOL     -0.052690
    112 H49        -5.9680    3.5700   -0.0580 hc        1 MOL     -0.077008
    113 H50        -4.3730    3.9170    0.5510 hc        1 MOL     -0.077008
    114 N11        -6.8100    0.9960   -0.4980 n         1 MOL     -0.302748
    115 C36        -8.0930    0.3190   -0.6840 c3        1 MOL      0.157332
    116 C37        -8.0770   -0.5030   -2.0180 c         1 MOL      0.160517
    117 O19        -7.4710   -0.0490   -2.9830 o         1 MOL     -0.460908
    118 C38        -9.0390    1.4190   -0.8540 c3        1 MOL     -0.645411
    119 C39       -10.4360    0.9700   -1.2240 ca        1 MOL      0.356300
    120 C40       -10.8470    0.9840   -2.5370 ca        1 MOL     -0.269722
    121 C41       -11.3390    0.7800   -0.1650 ca        1 MOL     -0.269722
    122 C42       -12.1900    0.7140   -2.8400 ca        1 MOL     -0.094412
    123 C43       -12.7560    0.5850   -0.4460 ca        1 MOL     -0.094412
    124 C44       -13.1130    0.4990   -1.8070 ca        1 MOL     -0.156158
    125 H51        -6.4550    1.5420   -1.2690 hn        1 MOL      0.295932
    126 H52        -8.4890   -0.1500    0.2140 h1        1 MOL      0.089451
    127 H53        -8.6770    2.1940   -1.5400 hc        1 MOL      0.200200
    128 H54        -9.1160    1.7910    0.1630 hc        1 MOL      0.200200
    129 H55       -10.1190    1.1430   -3.3100 ha        1 MOL      0.163784
    130 H56       -11.0260    0.7330    0.8680 ha        1 MOL      0.163784
    131 H57       -12.5310    0.6020   -3.8600 ha        1 MOL      0.102329
    132 H58       -13.4820    0.4320    0.3350 ha        1 MOL      0.102329
    133 H59       -14.1280    0.2450   -2.0750 ha        1 MOL      0.088771
    134 N12        -8.7270   -1.7000   -2.0570 n         1 MOL      0.287310
    135 C45        -9.3670   -2.4110   -1.0010 c3        1 MOL      0.138981
    136 C46        -8.5120   -2.7390    0.2150 c         1 MOL      0.466046
    137 O20        -8.8490   -2.4590    1.3330 o         1 MOL     -0.604575
    138 C47       -10.1640   -3.5690   -1.6180 c3        1 MOL      0.057426
    139 C48       -10.3670   -3.0450   -3.0040 c3        1 MOL      0.082009
    140 C49        -9.0460   -2.2560   -3.3240 c3        1 MOL     -0.137131
    141 H60       -10.1850   -1.7480   -0.7030 h1        1 MOL     -0.010328
    142 H61        -9.7540   -4.5740   -1.6090 hc        1 MOL     -0.026745
    143 H62       -11.1050   -3.5420   -1.0780 hc        1 MOL     -0.026745
    144 H63       -10.5900   -3.7780   -3.7790 hc        1 MOL     -0.047590
    145 H64       -11.1880   -2.3320   -3.0570 hc        1 MOL     -0.047590
    146 H65        -8.3340   -3.0070   -3.6600 h1        1 MOL      0.043815
    147 H66        -9.2200   -1.4420   -4.0230 h1        1 MOL      0.043815
    148 N13        -7.3140   -3.2250   -0.0580 n         1 MOL     -0.245537
    149 C50        -6.3730   -3.7450    0.9180 c3        1 MOL      0.080399
    150 C51        -6.9440   -4.8990    1.7070 c         1 MOL      0.393687
    151 O21        -7.1080   -5.9940    1.1080 o         1 MOL     -0.576739
    152 C52        -5.0650   -4.1340    0.2020 c3        1 MOL     -0.118021
    153 C53        -4.1810   -2.9880   -0.3320 c3        1 MOL     -0.043015
    154 C54        -4.5240   -2.4770   -1.7470 c         1 MOL      0.652450
    155 O22        -5.5540   -2.8710   -2.3350 o         1 MOL     -0.678471
    156 O23        -3.7830   -1.6170   -2.2980 o         1 MOL     -0.678471
    157 H67        -7.0590   -3.2170   -1.0390 hn        1 MOL      0.117287
    158 H68        -6.1580   -2.9280    1.6050 h1        1 MOL      0.065548
    159 H69        -5.2100   -4.7960   -0.6560 hc        1 MOL      0.052807
    160 H70        -4.4390   -4.7000    0.8970 hc        1 MOL      0.052807
    161 H71        -3.2240   -3.4900   -0.4770 hc        1 MOL     -0.002567
    162 H72        -4.2570   -2.2240    0.4390 hc        1 MOL     -0.002567
    163 N14        -7.3380   -4.8630    3.0070 n         1 MOL     -0.284583
    164 C55        -7.5760   -3.6330    3.8370 c3        1 MOL     -0.189560
    165 H73        -8.2180   -3.8840    4.6810 h1        1 MOL      0.093483
    166 H74        -6.6230   -3.2540    4.2070 h1        1 MOL      0.093483
    167 H75        -8.0590   -2.8700    3.2280 h1        1 MOL      0.093483
    168 H76        -7.5350   -5.7600    3.4350 hn        1 MOL      0.240766
    169 Ca1         7.8140    0.0250    0.0340 Ca        1 MOL      1.751182
    170 O24         6.6440    1.0450    2.1840 oh        1 MOL     -0.838122
    171 H77         7.1300    1.2730    2.9830 ho        1 MOL      0.413151
    172 H78         5.7360    1.2860    2.3790 ho        1 MOL      0.413151
    173 O25         8.6280    2.5350    0.5460 oh        1 MOL     -0.838122
    174 H79         9.0450    3.1740   -0.0300 ho        1 MOL      0.413151
    175 H80         7.9510    3.0270    1.0140 ho        1 MOL      0.413151
    176 O26        10.1670   -0.0920    1.1730 oh        1 MOL     -0.838122
    177 H81        10.8230    0.5770    1.0090 ho        1 MOL      0.413151
    178 H82        10.6150   -0.7490    1.7160 ho        1 MOL      0.413151
    179 O27         9.3210    1.1380   -2.2540 oh        1 MOL     -0.838122
    180 H83         9.2460    0.6040   -3.0380 ho        1 MOL      0.413151
    181 H84         9.1530    2.0340   -2.5450 ho        1 MOL      0.413151
@<TRIPOS>BOND
     1    1    2 1   
     2    1    4 1   
     3    1    5 1   
     4    1    6 1   
     5    2    3 2   
     6    2    7 1   
     7    7    8 1   
     8    7   15 1   
     9    8    9 1   
    10    8   11 1   
    11    8   16 1   
    12    9   10 2   
    13    9   19 1   
    14   11   12 1   
    15   11   17 1   
    16   11   18 1   
    17   12   13 1   
    18   12   14 1   
    19   19   20 1   
    20   19   24 1   
    21   20   21 1   
    22   20   23 1   
    23   20   25 1   
    24   21   22 2   
    25   21   29 1   
    26   23   26 1   
    27   23   27 1   
    28   23   28 1   
    29   29   30 1   
    30   29   37 1   
    31   30   31 1   
    32   30   33 1   
    33   30   38 1   
    34   31   32 2   
    35   31   41 1   
    36   33   34 1   
    37   33   39 1   
    38   33   40 1   
    39   34   35 1   
    40   34   36 1   
    41   41   42 1   
    42   41   45 1   
    43   42   43 1   
    44   42   46 1   
    45   42   47 1   
    46   43   44 2   
    47   43   48 1   
    48   48   49 1   
    49   48   56 1   
    50   49   50 1   
    51   49   52 1   
    52   49   57 1   
    53   50   51 2   
    54   50   62 1   
    55   52   53 1   
    56   52   58 1   
    57   52   59 1   
    58   53   54 1   
    59   53   55 2   
    60   54   60 1   
    61   54   61 1   
    62   62   63 1   
    63   62   66 1   
    64   63   64 1   
    65   63   67 1   
    66   63   68 1   
    67   64   65 2   
    68   64   69 1   
    69   69   70 1   
    70   69   76 1   
    71   70   71 1   
    72   70   73 1   
    73   70   77 1   
    74   71   72 2   
    75   71   83 1   
    76   73   74 1   
    77   73   75 1   
    78   73   78 1   
    79   74   80 1   
    80   74   81 1   
    81   74   82 1   
    82   75   79 1   
    83   83   84 1   
    84   83   91 1   
    85   84   85 1   
    86   84   87 1   
    87   84   92 1   
    88   85   86 2   
    89   85  102 1   
    90   87   88 1   
    91   87   89 1   
    92   87   93 1   
    93   88   90 1   
    94   88   94 1   
    95   88   95 1   
    96   89   96 1   
    97   89   97 1   
    98   89   98 1   
    99   90   99 1   
   100   90  100 1   
   101   90  101 1   
   102  102  103 1   
   103  102  110 1   
   104  103  104 1   
   105  103  106 1   
   106  103  111 1   
   107  104  105 2   
   108  104  114 1   
   109  106  107 1   
   110  106  112 1   
   111  106  113 1   
   112  107  108 1   
   113  107  109 1   
   114  114  115 1   
   115  114  125 1   
   116  115  116 1   
   117  115  118 1   
   118  115  126 1   
   119  116  117 2   
   120  116  134 1   
   121  118  119 1   
   122  118  127 1   
   123  118  128 1   
   124  119  120 ar  
   125  119  121 ar  
   126  120  122 ar  
   127  120  129 1   
   128  121  123 ar  
   129  121  130 1   
   130  122  124 ar  
   131  122  131 1   
   132  123  124 ar  
   133  123  132 1   
   134  124  133 1   
   135  134  135 1   
   136  134  140 1   
   137  135  136 1   
   138  135  138 1   
   139  135  141 1   
   140  136  137 2   
   141  136  148 1   
   142  138  139 1   
   143  138  142 1   
   144  138  143 1   
   145  139  140 1   
   146  139  144 1   
   147  139  145 1   
   148  140  146 1   
   149  140  147 1   
   150  148  149 1   
   151  148  157 1   
   152  149  150 1   
   153  149  152 1   
   154  149  158 1   
   155  150  151 2   
   156  150  163 1   
   157  152  153 1   
   158  152  159 1   
   159  152  160 1   
   160  153  154 1   
   161  153  161 1   
   162  153  162 1   
   163  154  155 1   
   164  154  156 1   
   165  163  164 1   
   166  163  168 1   
   167  164  165 1   
   168  164  166 1   
   169  164  167 1   
   170  170  171 1   
   171  170  172 1   
   172  173  174 1   
   173  173  175 1   
   174  176  177 1   
   175  176  178 1   
   176  179  180 1   
   177  179  181 1   
@<TRIPOS>SUBSTRUCTURE
     1 MOL         1 TEMP              0 ****  ****    0 ROOT
