@<TRIPOS>MOLECULE
MOL
  195   189     1     0     0
SMALL
resp


@<TRIPOS>ATOM
      1 C1          6.4580   -4.5330    1.2550 c3        1 MOL     -0.355574
      2 C2          5.6010   -3.5410    0.4520 c         1 MOL      0.640436
      3 O1          6.0890   -2.7530   -0.3630 o         1 MOL     -0.575404
      4 H1          7.3620   -4.7700    0.6940 hc        1 MOL      0.096139
      5 H2          6.7320   -4.0860    2.2110 hc        1 MOL      0.096139
      6 H3          5.8890   -5.4460    1.4300 hc        1 MOL      0.096139
      7 N1          4.2520   -3.6020    0.4480 n         1 MOL     -0.460774
      8 C3          3.3400   -4.5280    1.1690 c3        1 MOL      0.176827
      9 C4          2.6010   -5.5470    0.2910 c         1 MOL      0.290907
     10 O2          2.2730   -6.6110    0.8400 o         1 MOL     -0.559908
     11 C5          2.2140   -3.8750    2.0050 c3        1 MOL     -0.046979
     12 C6          2.6800   -2.6000    2.6970 c         1 MOL      0.622961
     13 O3          3.0760   -2.6590    3.8630 o         1 MOL     -0.715127
     14 O4          2.4460   -1.5110    2.0940 o         1 MOL     -0.715127
     15 H4          3.7960   -2.9580   -0.1920 hn        1 MOL      0.238168
     16 H5          3.9010   -5.1110    1.9020 h1        1 MOL      0.042879
     17 H6          1.9080   -4.5450    2.8080 hc        1 MOL      0.025580
     18 H7          1.3200   -3.6850    1.4110 hc        1 MOL      0.025580
     19 N2          2.1980   -5.2250   -0.9210 n         1 MOL     -0.027034
     20 C7          1.6460   -6.2160   -1.9290 c3        1 MOL     -0.180060
     21 C8          0.1040   -6.2900   -1.8590 c         1 MOL      0.393840
     22 O5         -0.5100   -7.1920   -2.4120 o         1 MOL     -0.532579
     23 C9          2.3460   -5.9700   -3.3140 c3        1 MOL      0.068715
     24 C10         1.9770   -4.6810   -4.0910 c3        1 MOL      0.074841
     25 C11         3.9070   -5.9660   -3.2530 c3        1 MOL     -0.396411
     26 C12         0.7360   -4.8260   -5.0290 c3        1 MOL     -0.132626
     27 H8          2.2330   -4.2430   -1.1410 hn        1 MOL      0.123122
     28 H9          2.0750   -7.1670   -1.6070 h1        1 MOL      0.149834
     29 H10         2.0820   -6.8680   -3.8750 hc        1 MOL      0.037913
     30 H11         2.7430   -4.2530   -4.7470 hc        1 MOL     -0.002392
     31 H12         1.7170   -3.9280   -3.3420 hc        1 MOL     -0.002392
     32 H13         4.4100   -5.8140   -4.2110 hc        1 MOL      0.091080
     33 H14         4.3470   -5.2170   -2.6010 hc        1 MOL      0.091080
     34 H15         4.1920   -6.9200   -2.7940 hc        1 MOL      0.091080
     35 H16         0.7060   -5.8020   -5.4930 hc        1 MOL      0.027977
     36 H17        -0.1230   -4.7000   -4.3700 hc        1 MOL      0.027977
     37 H18         0.7960   -4.1100   -5.8540 hc        1 MOL      0.027977
     38 N3         -0.5500   -5.4110   -1.1710 n         1 MOL     -0.068064
     39 C13        -1.9630   -5.3720   -0.8340 c3        1 MOL     -0.042035
     40 C14        -2.2910   -4.6180    0.3720 c         1 MOL      0.399673
     41 O6         -1.6280   -3.6580    0.6790 o         1 MOL     -0.509239
     42 C15        -2.6310   -4.8820   -2.1140 c3        1 MOL     -0.049523
     43 C16        -4.1920   -5.0470   -2.2660 c         1 MOL      0.713251
     44 O7         -4.7330   -4.2050   -3.0700 o         1 MOL     -0.714091
     45 O8         -4.7910   -6.0180   -1.7290 o         1 MOL     -0.714091
     46 H19         0.0280   -4.6560   -0.8350 hn        1 MOL      0.096918
     47 H20        -2.3820   -6.3800   -0.7660 h1        1 MOL      0.013171
     48 H21        -2.2290   -5.2800   -3.0500 hc        1 MOL      0.012117
     49 H22        -2.4780   -3.8090   -2.1920 hc        1 MOL      0.012117
     50 N4         -3.4030   -5.0200    0.9530 n         1 MOL     -0.265693
     51 C17        -4.0670   -4.2250    1.9850 c3        1 MOL     -0.103443
     52 C18        -4.7820   -2.8680    1.4720 c         1 MOL      0.565505
     53 O9         -4.2640   -2.1190    0.6420 o         1 MOL     -0.553575
     54 H23        -3.8570   -5.8690    0.6410 hn        1 MOL      0.273225
     55 H24        -3.2520   -3.8470    2.6080 h1        1 MOL      0.052913
     56 H25        -4.7370   -4.8490    2.5830 h1        1 MOL      0.052913
     57 N5         -6.0290   -2.7220    1.7180 n         1 MOL     -0.398955
     58 C19        -6.8530   -1.7040    1.1140 c3        1 MOL      0.237928
     59 C20        -7.2080   -1.8050   -0.3650 c         1 MOL      0.638168
     60 O10        -7.6730   -2.8510   -0.8050 o         1 MOL     -0.564121
     61 C21        -8.1410   -1.5300    1.9400 c3        1 MOL     -0.577400
     62 C22        -7.8560   -1.1640    3.3900 c         1 MOL      0.852646
     63 O11        -7.5750   -0.0170    3.7050 o         1 MOL     -0.763794
     64 O12        -7.7940   -2.0880    4.1910 o         1 MOL     -0.763794
     65 H26        -6.4850   -3.4420    2.2700 hn        1 MOL      0.274291
     66 H27        -6.3340   -0.7800    1.3700 h1        1 MOL      0.044042
     67 H28        -8.6350   -2.5010    1.9560 hc        1 MOL      0.101883
     68 H29        -8.7530   -0.7190    1.5660 hc        1 MOL      0.101883
     69 N6         -7.1000   -0.7490   -1.1700 n         1 MOL     -0.611434
     70 C23        -6.6630    0.6140   -0.8430 c3        1 MOL      0.126507
     71 C24        -7.0890    1.7590   -1.7760 c         1 MOL      0.577460
     72 O13        -7.5580    1.5460   -2.8890 o         1 MOL     -0.587366
     73 H30        -7.4210   -0.9060   -2.1150 hn        1 MOL      0.326667
     74 H31        -5.5720    0.6440   -0.8820 h1        1 MOL      0.081246
     75 H32        -7.0380    0.9350    0.1310 h1        1 MOL      0.081246
     76 N7         -7.0190    3.0180   -1.4800 n         1 MOL     -0.577606
     77 C25        -6.3580    3.6800   -0.3620 c3        1 MOL      0.299591
     78 C26        -5.2090    2.8860    0.2470 c         1 MOL      0.231478
     79 O14        -5.3120    2.2040    1.2850 o         1 MOL     -0.414541
     80 C27        -7.3620    4.0760    0.6910 c3        1 MOL      0.060659
     81 C28        -8.4880    5.0000    0.2330 c3        1 MOL     -0.404370
     82 C29        -9.4460    5.1980    1.3870 c         1 MOL      0.743090
     83 N8        -10.6910    4.8910    1.3880 n         1 MOL     -0.799280
     84 O15        -9.0110    5.7930    2.4010 o         1 MOL     -0.587346
     85 H33        -7.4620    3.6330   -2.1510 hn        1 MOL      0.313875
     86 H34        -5.8780    4.6100   -0.6910 h1        1 MOL      0.022303
     87 H35        -6.8340    4.4940    1.5430 hc        1 MOL      0.026100
     88 H36        -7.8050    3.2070    1.1770 hc        1 MOL      0.026100
     89 H37        -9.0230    4.7000   -0.6640 hc        1 MOL      0.082693
     90 H38        -7.9910    5.9370    0.0120 hc        1 MOL      0.082693
     91 H39       -10.9400    4.1930    0.6950 hn        1 MOL      0.368495
     92 H40       -11.2980    5.1050    2.1640 hn        1 MOL      0.368495
     93 N9         -4.0620    2.9610   -0.4090 n         1 MOL     -0.336519
     94 C30        -2.9070    1.9730   -0.1420 c3        1 MOL     -0.019830
     95 C31        -2.3600    1.4420   -1.4830 c         1 MOL      0.466251
     96 O16        -2.7060    1.9950   -2.5500 o         1 MOL     -0.530138
     97 C32        -1.7470    2.4770    0.7780 c3        1 MOL      0.463557
     98 C33        -2.2390    2.7990    2.1600 c3        1 MOL     -0.383962
     99 C34        -0.9790    3.6520    0.3150 c3        1 MOL     -0.383962
    100 H41        -3.9330    3.6500   -1.1360 hn        1 MOL      0.214492
    101 H42        -3.3190    1.1330    0.4200 h1        1 MOL      0.060070
    102 H43        -1.0640    1.6370    0.9260 hc        1 MOL     -0.075327
    103 H44        -1.3550    3.0220    2.7640 hc        1 MOL      0.093968
    104 H45        -2.9690    3.6060    2.1520 hc        1 MOL      0.093968
    105 H46        -2.7460    1.8940    2.5060 hc        1 MOL      0.093968
    106 H47        -0.2800    3.9750    1.0780 hc        1 MOL      0.093968
    107 H48        -0.3280    3.3470   -0.5170 hc        1 MOL      0.093968
    108 H49        -1.6830    4.4400    0.0490 hc        1 MOL      0.093968
    109 N10        -1.4790    0.4000   -1.4610 n         1 MOL     -0.158991
    110 C35        -0.8010   -0.2450   -2.5520 c3        1 MOL     -0.234744
    111 C36         0.4630    0.4040   -3.1700 c         1 MOL      0.497612
    112 O17         1.0380   -0.0690   -4.1320 o         1 MOL     -0.512916
    113 C37        -0.4180   -1.6740   -2.0420 c3        1 MOL     -0.102681
    114 C38         0.7480   -1.7660   -1.1280 c         1 MOL      0.460579
    115 N11         0.6430   -1.2820    0.0910 n         1 MOL     -0.666459
    116 O18         1.8140   -2.2400   -1.4970 o         1 MOL     -0.440973
    117 H50        -1.4070    0.0440   -0.5190 hn        1 MOL      0.121403
    118 H51        -1.5710   -0.4440   -3.3000 h1        1 MOL      0.179488
    119 H52        -0.2770   -2.2860   -2.9460 hc        1 MOL      0.090750
    120 H53        -1.2320   -2.1850   -1.5250 hc        1 MOL      0.090750
    121 H54        -0.2290   -1.0140    0.5230 hn        1 MOL      0.353292
    122 H55         1.3130   -1.4920    0.8190 hn        1 MOL      0.353292
    123 N12         1.0120    1.4790   -2.5510 n         1 MOL     -0.053964
    124 C39         2.3490    2.1050   -2.9060 c3        1 MOL      0.012285
    125 C40         2.9890    2.7860   -1.7030 c         1 MOL      0.479906
    126 O19         2.3090    3.1420   -0.7320 o         1 MOL     -0.490373
    127 C41         2.1740    3.1350   -4.0120 c3        1 MOL      0.228777
    128 C42         1.2800    4.3670   -3.6290 ca        1 MOL      0.019636
    129 C43         1.8120    5.5890   -3.1090 ca        1 MOL     -0.187649
    130 C44        -0.1790    4.1740   -3.6290 ca        1 MOL     -0.187649
    131 C45         0.9620    6.5900   -2.5980 ca        1 MOL     -0.231859
    132 C46        -0.9810    5.2200   -3.2050 ca        1 MOL     -0.231859
    133 C47        -0.4020    6.4320   -2.7410 ca        1 MOL      0.306211
    134 O20        -1.3250    7.4170   -2.3660 oh        1 MOL     -0.495001
    135 H56         0.5920    1.9820   -1.7720 hn        1 MOL     -0.078639
    136 H57         3.0250    1.3470   -3.3120 h1        1 MOL      0.060038
    137 H58         1.6840    2.6530   -4.8540 hc        1 MOL     -0.070718
    138 H59         3.1540    3.4740   -4.3510 hc        1 MOL     -0.070718
    139 H60         2.8830    5.7320   -3.1360 ha        1 MOL      0.148892
    140 H61        -0.6140    3.2630   -4.0110 ha        1 MOL      0.148892
    141 H62         1.2880    7.5300   -2.1920 ha        1 MOL      0.165091
    142 H63        -2.0580    5.1950   -3.2220 ha        1 MOL      0.165091
    143 H64        -2.0390    7.3290   -3.0040 ho        1 MOL      0.318931
    144 N13         4.3370    2.9290   -1.6810 n         1 MOL     -0.452249
    145 C48         5.0390    3.6680   -0.6110 c3        1 MOL      0.001852
    146 C49         6.3110    2.9650   -0.3730 c         1 MOL      0.492571
    147 O21         7.3450    3.3310   -0.9260 o         1 MOL     -0.497880
    148 C50         5.1090    5.2500   -0.7930 c3        1 MOL      0.088879
    149 C51         5.6620    5.9190    0.4810 c3        1 MOL     -0.393809
    150 C52         5.9590    7.3710    0.1800 c         1 MOL      0.747593
    151 O22         7.1220    7.8790    0.1100 o         1 MOL     -0.746853
    152 O23         4.9570    8.1100   -0.0010 o         1 MOL     -0.746853
    153 H65         4.8520    2.5200   -2.4520 hn        1 MOL      0.269270
    154 H66         4.4490    3.5220    0.3000 h1        1 MOL      0.076924
    155 H67         4.1350    5.6090   -1.1240 hc        1 MOL      0.026670
    156 H68         5.7920    5.4100   -1.6280 hc        1 MOL      0.026670
    157 H69         6.6070    5.4630    0.7700 hc        1 MOL      0.077815
    158 H70         4.9320    5.8850    1.2930 hc        1 MOL      0.077815
    159 N14         6.2080    1.8400    0.3080 n         1 MOL     -0.324237
    160 C53         7.2860    0.9120    0.2490 c3        1 MOL     -0.145620
    161 C54         7.3870    0.1600   -1.0970 c         1 MOL      0.360538
    162 O24         8.4790   -0.1160   -1.5780 o         1 MOL     -0.509861
    163 C55         7.1100   -0.1410    1.3710 c3        1 MOL      0.189605
    164 C56         7.2210    0.3570    2.8320 c3        1 MOL     -0.295118
    165 C57         5.8300    0.5320    3.5430 c         1 MOL      0.729259
    166 O25         4.9560    1.2710    3.0870 o         1 MOL     -0.766279
    167 O26         5.5030   -0.3190    4.3930 o         1 MOL     -0.766279
    168 H71         5.3100    1.5480    0.6530 hn        1 MOL      0.286835
    169 H72         8.2180    1.4090    0.5000 h1        1 MOL      0.113586
    170 H73         7.8170   -0.9400    1.1440 hc        1 MOL      0.020553
    171 H74         6.0680   -0.4680    1.3130 hc        1 MOL      0.020553
    172 H75         7.8370    1.2510    2.8800 hc        1 MOL      0.051353
    173 H76         7.7080   -0.4000    3.4490 hc        1 MOL      0.051353
    174 N15         6.2290    0.0480   -1.8150 n         1 MOL      0.000257
    175 C58         6.0940   -0.4600   -3.1800 c3        1 MOL     -0.428546
    176 H77         6.4480   -1.4900   -3.2210 h1        1 MOL      0.140881
    177 H78         5.0460   -0.4240   -3.4790 h1        1 MOL      0.140881
    178 H79         6.6870    0.1550   -3.8570 h1        1 MOL      0.140881
    179 H80         5.3570    0.1320   -1.3260 hn        1 MOL      0.141719
    180 Ca1         2.8720   -0.0800    4.2840 Ca        1 MOL      1.739627
    181 O27         1.8510    1.2830    2.3240 oh        1 MOL     -0.806809
    182 O28         1.0700    1.7010    5.0760 oh        1 MOL     -0.806809
    183 H81         1.5100    2.1720    2.2060 ho        1 MOL      0.402314
    184 H82         0.3580    1.6750    5.7140 ho        1 MOL      0.402314
    185 H83         1.7830    0.8760    1.4560 ho        1 MOL      0.402314
    186 H84         1.1440    2.6240    4.8370 ho        1 MOL      0.402314
    187 O29         2.4500   -1.3790    6.5430 oh        1 MOL     -0.806809
    188 H85         2.9880   -2.1030    6.8620 ho        1 MOL      0.402314
    189 H86         1.5570   -1.6030    6.8220 ho        1 MOL      0.402314
    190 O30         3.9300    1.9050    5.9190 oh        1 MOL     -0.806809
    191 H87         3.7420    2.3400    6.7530 ho        1 MOL      0.402314
    192 H88         4.7910    1.5230    6.0400 ho        1 MOL      0.402314
    193 O31         0.4470   -1.0360    4.5830 oh        1 MOL     -0.806809
    194 H89         0.0740   -1.3170    5.4150 ho        1 MOL      0.402314
    195 H90         0.0900   -1.6570    3.9410 ho        1 MOL      0.402314
@<TRIPOS>BOND
     1    1    2 1   
     2    1    4 1   
     3    1    5 1   
     4    1    6 1   
     5    2    3 2   
     6    2    7 1   
     7    7    8 1   
     8    7   15 1   
     9    8    9 1   
    10    8   11 1   
    11    8   16 1   
    12    9   10 2   
    13    9   19 1   
    14   11   12 1   
    15   11   17 1   
    16   11   18 1   
    17   12   13 1   
    18   12   14 1   
    19   19   20 1   
    20   19   27 1   
    21   20   21 1   
    22   20   23 1   
    23   20   28 1   
    24   21   22 2   
    25   21   38 1   
    26   23   24 1   
    27   23   25 1   
    28   23   29 1   
    29   24   26 1   
    30   24   30 1   
    31   24   31 1   
    32   25   32 1   
    33   25   33 1   
    34   25   34 1   
    35   26   35 1   
    36   26   36 1   
    37   26   37 1   
    38   38   39 1   
    39   38   46 1   
    40   39   40 1   
    41   39   42 1   
    42   39   47 1   
    43   40   41 2   
    44   40   50 1   
    45   42   43 1   
    46   42   48 1   
    47   42   49 1   
    48   43   44 1   
    49   43   45 1   
    50   50   51 1   
    51   50   54 1   
    52   51   52 1   
    53   51   55 1   
    54   51   56 1   
    55   52   53 2   
    56   52   57 1   
    57   57   58 1   
    58   57   65 1   
    59   58   59 1   
    60   58   61 1   
    61   58   66 1   
    62   59   60 2   
    63   59   69 1   
    64   61   62 1   
    65   61   67 1   
    66   61   68 1   
    67   62   63 1   
    68   62   64 1   
    69   69   70 1   
    70   69   73 1   
    71   70   71 1   
    72   70   74 1   
    73   70   75 1   
    74   71   72 2   
    75   71   76 1   
    76   76   77 1   
    77   76   85 1   
    78   77   78 1   
    79   77   80 1   
    80   77   86 1   
    81   78   79 2   
    82   78   93 1   
    83   80   81 1   
    84   80   87 1   
    85   80   88 1   
    86   81   82 1   
    87   81   89 1   
    88   81   90 1   
    89   82   83 1   
    90   82   84 2   
    91   83   91 1   
    92   83   92 1   
    93   93   94 1   
    94   93  100 1   
    95   94   95 1   
    96   94   97 1   
    97   94  101 1   
    98   95   96 2   
    99   95  109 1   
   100   97   98 1   
   101   97   99 1   
   102   97  102 1   
   103   98  103 1   
   104   98  104 1   
   105   98  105 1   
   106   99  106 1   
   107   99  107 1   
   108   99  108 1   
   109  109  110 1   
   110  109  117 1   
   111  110  111 1   
   112  110  113 1   
   113  110  118 1   
   114  111  112 2   
   115  111  123 1   
   116  113  114 1   
   117  113  119 1   
   118  113  120 1   
   119  114  115 1   
   120  114  116 2   
   121  115  121 1   
   122  115  122 1   
   123  123  124 1   
   124  123  135 1   
   125  124  125 1   
   126  124  127 1   
   127  124  136 1   
   128  125  126 2   
   129  125  144 1   
   130  127  128 1   
   131  127  137 1   
   132  127  138 1   
   133  128  129 ar  
   134  128  130 ar  
   135  129  131 ar  
   136  129  139 1   
   137  130  132 ar  
   138  130  140 1   
   139  131  133 ar  
   140  131  141 1   
   141  132  133 ar  
   142  132  142 1   
   143  133  134 1   
   144  134  143 1   
   145  144  145 1   
   146  144  153 1   
   147  145  146 1   
   148  145  148 1   
   149  145  154 1   
   150  146  147 2   
   151  146  159 1   
   152  148  149 1   
   153  148  155 1   
   154  148  156 1   
   155  149  150 1   
   156  149  157 1   
   157  149  158 1   
   158  150  151 1   
   159  150  152 1   
   160  159  160 1   
   161  159  168 1   
   162  160  161 1   
   163  160  163 1   
   164  160  169 1   
   165  161  162 2   
   166  161  174 1   
   167  163  164 1   
   168  163  170 1   
   169  163  171 1   
   170  164  165 1   
   171  164  172 1   
   172  164  173 1   
   173  165  166 1   
   174  165  167 1   
   175  174  175 1   
   176  174  179 1   
   177  175  176 1   
   178  175  177 1   
   179  175  178 1   
   180  181  183 1   
   181  181  185 1   
   182  182  184 1   
   183  182  186 1   
   184  187  188 1   
   185  187  189 1   
   186  190  191 1   
   187  190  192 1   
   188  193  194 1   
   189  193  195 1   
@<TRIPOS>SUBSTRUCTURE
     1 MOL         1 TEMP              0 ****  ****    0 ROOT
