@<TRIPOS>MOLECULE
MOL
  178   175     1     0     0
SMALL
resp


@<TRIPOS>ATOM
      1 C1          4.3880   -4.6220    2.8490 c3        1 MOL     -0.366284
      2 C2          4.8520   -3.2080    2.5630 c         1 MOL      0.781438
      3 O1          4.4370   -2.6240    1.5370 o         1 MOL     -0.575478
      4 H1          3.6880   -4.6120    3.6860 hc        1 MOL      0.092135
      5 H2          3.8930   -5.0280    1.9680 hc        1 MOL      0.092135
      6 H3          5.2470   -5.2420    3.1020 hc        1 MOL      0.092135
      7 N1          5.6000   -2.6960    3.4590 n         1 MOL     -0.692772
      8 C3          6.2560   -1.3380    3.2700 c3        1 MOL      0.447207
      9 C4          7.1330   -1.2270    2.0250 c         1 MOL      0.335613
     10 O2          7.0540   -0.2400    1.3380 o         1 MOL     -0.321266
     11 C5          7.0240   -0.9350    4.5200 c3        1 MOL     -0.145052
     12 C6          7.7690    0.3630    4.3260 c         1 MOL      0.600434
     13 O3          7.1170    1.2960    3.7900 o         1 MOL     -0.685793
     14 O4          9.0690    0.2680    4.4530 o         1 MOL     -0.685793
     15 H4          5.9410   -3.1960    4.2660 hn        1 MOL      0.332083
     16 H5          5.5290   -0.5460    3.1110 h1        1 MOL      0.007271
     17 H6          7.7130   -1.7350    4.7910 hc        1 MOL     -0.034966
     18 H7          6.2170   -0.8760    5.2420 hc        1 MOL     -0.034966
     19 N2          7.7920   -2.3220    1.6440 n         1 MOL     -0.320910
     20 C7          8.5610   -2.5290    0.3780 c3        1 MOL      0.249065
     21 C8          7.7090   -2.1650   -0.9060 c         1 MOL      0.278761
     22 O5          8.2900   -1.8260   -1.9170 o         1 MOL     -0.473680
     23 C9          9.8690   -1.7230    0.4970 c3        1 MOL     -0.501672
     24 H8          7.7830   -3.0980    2.2940 hn        1 MOL      0.210055
     25 H9          8.7800   -3.5920    0.4010 h1        1 MOL      0.016109
     26 H10         9.6720   -0.6580    0.6270 hc        1 MOL      0.137106
     27 H11        10.3800   -2.1270    1.3800 hc        1 MOL      0.137106
     28 H12        10.4550   -1.8540   -0.4170 hc        1 MOL      0.137106
     29 N3          6.4230   -2.2890   -0.7670 n         1 MOL     -0.294240
     30 C10         5.4290   -1.8610   -1.8020 c3        1 MOL      0.187836
     31 C11         5.6080   -0.3880   -2.1740 c         1 MOL      0.309477
     32 O6          5.4230    0.0660   -3.3040 o         1 MOL     -0.456656
     33 C12         5.3730   -2.9240   -2.9240 c3        1 MOL     -0.074762
     34 C13         4.1770   -2.6320   -3.8680 c         1 MOL      0.554789
     35 O7          4.3780   -2.8660   -5.1290 o         1 MOL     -0.666789
     36 O8          3.0390   -2.4350   -3.3680 o         1 MOL     -0.666789
     37 H13         6.1800   -2.6070    0.1600 hn        1 MOL      0.065946
     38 H14         4.4730   -1.8780   -1.2780 h1        1 MOL      0.091284
     39 H15         5.3150   -3.8950   -2.4390 hc        1 MOL      0.035771
     40 H16         6.3100   -2.8760   -3.4820 hc        1 MOL      0.035771
     41 N4          6.1090    0.5490   -1.2780 n         1 MOL      0.012334
     42 C14         6.3380    1.9350   -1.5700 c3        1 MOL     -0.277737
     43 C15         5.0880    2.7200   -1.8660 c         1 MOL      0.516494
     44 O9          5.0880    3.5650   -2.7920 o         1 MOL     -0.588379
     45 H17         6.2370    0.2310   -0.3220 hn        1 MOL      0.003463
     46 H18         6.9610    1.9220   -2.4590 h1        1 MOL      0.132456
     47 H19         6.9130    2.4630   -0.8220 h1        1 MOL      0.132456
     48 N5          4.0130    2.3610   -1.2530 n         1 MOL     -0.149625
     49 C16         2.7210    2.7830   -1.6070 c3        1 MOL     -0.420599
     50 C17         2.4930    4.1670   -0.8770 c         1 MOL      0.569765
     51 O10         2.5680    4.1830    0.3320 o         1 MOL     -0.517870
     52 C18         1.8260    1.6660   -1.0360 c3        1 MOL      0.024296
     53 C19         2.0360    0.3470   -1.7480 c         1 MOL      0.262120
     54 N6          2.1890    0.2420   -3.0310 n         1 MOL     -0.536320
     55 O11         2.1030   -0.6530   -1.1550 o         1 MOL     -0.448055
     56 H20         4.1070    1.8050   -0.4130 hn        1 MOL      0.261055
     57 H21         2.6680    2.8320   -2.6930 h1        1 MOL      0.175232
     58 H22         0.7640    1.9280   -0.9960 hc        1 MOL      0.114104
     59 H23         2.1940    1.4590   -0.0350 hc        1 MOL      0.114104
     60 H24         2.0620    1.0540   -3.6060 hn        1 MOL      0.300212
     61 H25         2.5190   -0.6340   -3.4150 hn        1 MOL      0.300212
     62 N7          2.2590    5.2740   -1.5730 n         1 MOL     -0.343459
     63 C20         1.6740    6.4800   -0.9910 c3        1 MOL     -0.139202
     64 C21         0.1610    6.6460   -1.1830 c         1 MOL      0.661814
     65 O12        -0.5160    6.0600   -2.0490 o         1 MOL     -0.568221
     66 H26         2.2310    5.2150   -2.5780 hn        1 MOL      0.279497
     67 H27         2.0870    7.2450   -1.6500 h1        1 MOL      0.088129
     68 H28         2.0150    6.6710    0.0210 h1        1 MOL      0.088129
     69 N8         -0.3470    7.4620   -0.3430 n         1 MOL     -0.527763
     70 C22        -1.7600    7.8520   -0.3180 c3        1 MOL      0.137918
     71 C23        -2.8180    6.7470    0.0130 c         1 MOL      0.324492
     72 O13        -3.9460    6.9230    0.5520 o         1 MOL     -0.530221
     73 C24        -2.0340    9.1400    0.4270 c3        1 MOL      0.300734
     74 C25        -1.8420    9.1190    1.9320 c3        1 MOL     -0.280865
     75 O14        -1.0770   10.1130    0.0530 oh        1 MOL     -0.647633
     76 H29         0.2900    7.9580    0.2580 hn        1 MOL      0.303223
     77 H30        -1.9670    8.1470   -1.3440 h1        1 MOL      0.074576
     78 H31        -3.0590    9.3900    0.1580 h1        1 MOL     -0.002060
     79 H32        -1.4000   10.9280    0.4320 ho        1 MOL      0.401968
     80 H33        -0.7720    9.0740    2.1660 hc        1 MOL      0.073452
     81 H34        -2.1570   10.0320    2.4280 hc        1 MOL      0.073452
     82 H35        -2.3330    8.2200    2.2930 hc        1 MOL      0.073452
     83 N9         -2.3150    5.5190    0.0130 n         1 MOL     -0.190268
     84 C26        -2.9750    4.3580    0.6130 c3        1 MOL      0.064892
     85 C27        -2.7120    3.1980   -0.3500 c         1 MOL      0.456160
     86 O15        -1.9000    3.2920   -1.2920 o         1 MOL     -0.485472
     87 C28        -2.2700    3.9720    2.0290 c3        1 MOL      0.027985
     88 C29        -0.6950    3.9790    1.9190 c3        1 MOL     -0.068495
     89 C30        -2.6700    5.0110    3.1020 c3        1 MOL     -0.047292
     90 C31         0.0220    3.2010    3.0500 c3        1 MOL     -0.313303
     91 H36        -1.4080    5.3560   -0.3920 hn        1 MOL      0.181559
     92 H37        -4.0670    4.3970    0.6940 h1        1 MOL      0.064350
     93 H38        -2.6010    2.9830    2.3460 hc        1 MOL      0.024666
     94 H39        -0.3280    5.0110    1.9590 hc        1 MOL      0.075454
     95 H40        -0.3830    3.4940    0.9950 hc        1 MOL      0.075454
     96 H41        -3.7300    5.0860    3.3250 hc        1 MOL      0.004440
     97 H42        -2.1800    4.7660    4.0490 hc        1 MOL      0.004440
     98 H43        -2.3140    6.0170    2.8580 hc        1 MOL      0.004440
     99 H44         1.1030    3.0770    3.0450 hc        1 MOL      0.091666
    100 H45        -0.0350    3.7260    4.0090 hc        1 MOL      0.091666
    101 H46        -0.3180    2.1840    3.2260 hc        1 MOL      0.091666
    102 N10        -3.2120    2.0150    0.0100 n         1 MOL     -0.645258
    103 C32        -2.7320    0.6490   -0.4680 c3        1 MOL      0.412825
    104 C33        -3.8840   -0.3150   -0.5010 c         1 MOL      0.379547
    105 O16        -3.8430   -1.4280    0.0760 o         1 MOL     -0.388045
    106 C34        -1.5690    0.1700    0.3600 c3        1 MOL     -0.041299
    107 C35        -0.8530   -0.9240   -0.3660 c         1 MOL      0.562093
    108 O17        -0.0080   -1.6370    0.2320 o         1 MOL     -0.710892
    109 O18        -0.9550   -1.0780   -1.6250 o         1 MOL     -0.710892
    110 H47        -3.8430    2.0630    0.7940 hn        1 MOL      0.285574
    111 H48        -2.3430    0.7580   -1.4830 h1        1 MOL      0.002118
    112 H49        -1.8560   -0.2200    1.3350 hc        1 MOL      0.000063
    113 H50        -0.8590    0.9940    0.4820 hc        1 MOL      0.000063
    114 N11        -5.0200    0.1080   -1.0910 n         1 MOL     -0.547427
    115 C36        -6.2450   -0.6450   -1.1940 c3        1 MOL      0.334259
    116 C37        -6.4570   -1.4680    0.1230 c         1 MOL      0.374548
    117 O19        -6.2970   -0.9480    1.2400 o         1 MOL     -0.493808
    118 C38        -7.4180    0.3340   -1.3930 c3        1 MOL     -0.428743
    119 C39        -8.7480   -0.3550   -1.3640 ca        1 MOL      0.169320
    120 C40        -9.3660   -0.7210   -2.5750 ca        1 MOL     -0.148047
    121 C41        -9.2730   -0.7130   -0.1810 ca        1 MOL     -0.148047
    122 C42       -10.6120   -1.3580   -2.5300 ca        1 MOL     -0.128963
    123 C43       -10.4600   -1.4720   -0.1080 ca        1 MOL     -0.128963
    124 C44       -11.2160   -1.7100   -1.2910 ca        1 MOL     -0.146094
    125 H51        -5.0370    1.0340   -1.4910 hn        1 MOL      0.307398
    126 H52        -6.0350   -1.3480   -1.9920 h1        1 MOL      0.031895
    127 H53        -7.1890    0.9020   -2.2890 hc        1 MOL      0.141520
    128 H54        -7.4270    0.9980   -0.5340 hc        1 MOL      0.141520
    129 H55        -8.9810   -0.2750   -3.4750 ha        1 MOL      0.115302
    130 H56        -8.7860   -0.4020    0.7370 ha        1 MOL      0.115302
    131 H57       -11.2250   -1.3240   -3.4190 ha        1 MOL      0.116560
    132 H58       -10.9350   -1.7670    0.8140 ha        1 MOL      0.116560
    133 H59       -12.2500   -2.0180   -1.2890 ha        1 MOL      0.124298
    134 N12        -6.8290   -2.7730   -0.0110 n         1 MOL     -0.223199
    135 C45        -7.1390   -3.5450    1.1180 c3        1 MOL      0.163409
    136 C46        -5.9020   -3.9120    2.0830 c         1 MOL      0.087007
    137 O20        -6.1160   -4.2360    3.2500 o         1 MOL     -0.489695
    138 C47        -7.8940   -4.8030    0.6750 c3        1 MOL     -0.029232
    139 C48        -8.4270   -4.3510   -0.6600 c3        1 MOL     -0.062965
    140 C49        -7.3000   -3.4980   -1.2030 c3        1 MOL     -0.008957
    141 H60        -7.8950   -3.0210    1.7070 h1        1 MOL      0.080380
    142 H61        -7.1040   -5.5310    0.4750 hc        1 MOL      0.041592
    143 H62        -8.6760   -5.1130    1.3690 hc        1 MOL      0.041592
    144 H63        -8.5610   -5.2440   -1.2610 hc        1 MOL      0.025547
    145 H64        -9.2670   -3.6630   -0.6250 hc        1 MOL      0.025547
    146 H65        -6.5540   -4.2230   -1.5450 h1        1 MOL      0.044477
    147 H66        -7.5860   -2.8770   -2.0420 h1        1 MOL      0.044477
    148 N13        -4.6280   -3.7500    1.7080 n         1 MOL      0.054761
    149 C50        -3.3570   -3.8920    2.5190 c3        1 MOL     -0.222992
    150 C51        -3.2380   -2.7680    3.6040 c         1 MOL      0.382011
    151 O21        -2.5110   -2.8990    4.6240 o         1 MOL     -0.547312
    152 C52        -2.1020   -3.7580    1.6080 c3        1 MOL      0.164206
    153 C53        -1.9160   -4.9430    0.7050 c3        1 MOL     -0.141736
    154 C54        -0.7830   -4.8290   -0.3510 c         1 MOL      0.706981
    155 O22        -1.0490   -4.5730   -1.5560 o         1 MOL     -0.748199
    156 O23         0.3680   -4.8420    0.1160 o         1 MOL     -0.748199
    157 H67        -4.3980   -3.2900    0.8340 hn        1 MOL      0.115096
    158 H68        -3.3520   -4.8470    3.0360 h1        1 MOL      0.127316
    159 H69        -1.2550   -3.6690    2.2900 hc        1 MOL      0.048729
    160 H70        -2.2660   -2.8380    1.0510 hc        1 MOL      0.048729
    161 H71        -2.8770   -5.1640    0.2370 hc        1 MOL     -0.018222
    162 H72        -1.6790   -5.7330    1.4250 hc        1 MOL     -0.018222
    163 N14        -3.9410   -1.6550    3.4770 n         1 MOL      0.020192
    164 C55        -3.9890   -0.5870    4.4520 c3        1 MOL     -0.339733
    165 H73        -4.2400   -0.9990    5.4290 h1        1 MOL      0.111353
    166 H74        -3.0160   -0.0980    4.5040 h1        1 MOL      0.111353
    167 H75        -4.7460    0.1390    4.1590 h1        1 MOL      0.111353
    168 H76        -4.4220   -1.5000    2.6070 hn        1 MOL      0.141623
    169 Ca1         1.0750   -2.9300   -1.7800 Ca        1 MOL      1.726373
    170 O24         2.0430   -5.2560   -2.9820 oh        1 MOL     -0.797895
    171 H77         1.3740   -5.8980   -3.2230 ho        1 MOL      0.383342
    172 H78         2.5570   -5.1220   -3.7940 ho        1 MOL      0.383342
    173 O25         3.2500   -3.8200   -0.4970 oh        1 MOL     -0.797895
    174 H79         3.6840   -4.6630   -0.5750 ho        1 MOL      0.383342
    175 H80         3.6730   -3.3990    0.2500 ho        1 MOL      0.383342
    176 O26         0.1380   -2.5960   -4.3010 oh        1 MOL     -0.797895
    177 H81         0.8050   -2.3370   -4.9270 ho        1 MOL      0.383342
    178 H82        -0.5330   -3.0250   -4.8350 ho        1 MOL      0.383342
@<TRIPOS>BOND
     1    1    2 1   
     2    1    4 1   
     3    1    5 1   
     4    1    6 1   
     5    2    3 2   
     6    2    7 1   
     7    7    8 1   
     8    7   15 1   
     9    8    9 1   
    10    8   11 1   
    11    8   16 1   
    12    9   10 2   
    13    9   19 1   
    14   11   12 1   
    15   11   17 1   
    16   11   18 1   
    17   12   13 1   
    18   12   14 1   
    19   19   20 1   
    20   19   24 1   
    21   20   21 1   
    22   20   23 1   
    23   20   25 1   
    24   21   22 2   
    25   21   29 1   
    26   23   26 1   
    27   23   27 1   
    28   23   28 1   
    29   29   30 1   
    30   29   37 1   
    31   30   31 1   
    32   30   33 1   
    33   30   38 1   
    34   31   32 2   
    35   31   41 1   
    36   33   34 1   
    37   33   39 1   
    38   33   40 1   
    39   34   35 1   
    40   34   36 1   
    41   41   42 1   
    42   41   45 1   
    43   42   43 1   
    44   42   46 1   
    45   42   47 1   
    46   43   44 2   
    47   43   48 1   
    48   48   49 1   
    49   48   56 1   
    50   49   50 1   
    51   49   52 1   
    52   49   57 1   
    53   50   51 2   
    54   50   62 1   
    55   52   53 1   
    56   52   58 1   
    57   52   59 1   
    58   53   54 1   
    59   53   55 2   
    60   54   60 1   
    61   54   61 1   
    62   62   63 1   
    63   62   66 1   
    64   63   64 1   
    65   63   67 1   
    66   63   68 1   
    67   64   65 2   
    68   64   69 1   
    69   69   70 1   
    70   69   76 1   
    71   70   71 1   
    72   70   73 1   
    73   70   77 1   
    74   71   72 2   
    75   71   83 1   
    76   73   74 1   
    77   73   75 1   
    78   73   78 1   
    79   74   80 1   
    80   74   81 1   
    81   74   82 1   
    82   75   79 1   
    83   83   84 1   
    84   83   91 1   
    85   84   85 1   
    86   84   87 1   
    87   84   92 1   
    88   85   86 2   
    89   85  102 1   
    90   87   88 1   
    91   87   89 1   
    92   87   93 1   
    93   88   90 1   
    94   88   94 1   
    95   88   95 1   
    96   89   96 1   
    97   89   97 1   
    98   89   98 1   
    99   90   99 1   
   100   90  100 1   
   101   90  101 1   
   102  102  103 1   
   103  102  110 1   
   104  103  104 1   
   105  103  106 1   
   106  103  111 1   
   107  104  105 2   
   108  104  114 1   
   109  106  107 1   
   110  106  112 1   
   111  106  113 1   
   112  107  108 1   
   113  107  109 1   
   114  114  115 1   
   115  114  125 1   
   116  115  116 1   
   117  115  118 1   
   118  115  126 1   
   119  116  117 2   
   120  116  134 1   
   121  118  119 1   
   122  118  127 1   
   123  118  128 1   
   124  119  120 ar  
   125  119  121 ar  
   126  120  122 ar  
   127  120  129 1   
   128  121  123 ar  
   129  121  130 1   
   130  122  124 ar  
   131  122  131 1   
   132  123  124 ar  
   133  123  132 1   
   134  124  133 1   
   135  134  135 1   
   136  134  140 1   
   137  135  136 1   
   138  135  138 1   
   139  135  141 1   
   140  136  137 2   
   141  136  148 1   
   142  138  139 1   
   143  138  142 1   
   144  138  143 1   
   145  139  140 1   
   146  139  144 1   
   147  139  145 1   
   148  140  146 1   
   149  140  147 1   
   150  148  149 1   
   151  148  157 1   
   152  149  150 1   
   153  149  152 1   
   154  149  158 1   
   155  150  151 2   
   156  150  163 1   
   157  152  153 1   
   158  152  159 1   
   159  152  160 1   
   160  153  154 1   
   161  153  161 1   
   162  153  162 1   
   163  154  155 1   
   164  154  156 1   
   165  163  164 1   
   166  163  168 1   
   167  164  165 1   
   168  164  166 1   
   169  164  167 1   
   170  170  171 1   
   171  170  172 1   
   172  173  174 1   
   173  173  175 1   
   174  176  177 1   
   175  176  178 1   
@<TRIPOS>SUBSTRUCTURE
     1 MOL         1 TEMP              0 ****  ****    0 ROOT
