@<TRIPOS>MOLECULE
MOL
  188   182     1     0     0
SMALL
resp


@<TRIPOS>ATOM
      1 C1          6.0490    2.1740   -5.3760 c3        1 MOL     -0.400463
      2 C2          5.6980    1.5770   -3.9510 c         1 MOL      0.619480
      3 O1          4.6460    1.7960   -3.3450 o         1 MOL     -0.546652
      4 H1          7.0940    1.9700   -5.6070 hc        1 MOL      0.108204
      5 H2          5.4140    1.7110   -6.1320 hc        1 MOL      0.108204
      6 H3          5.8820    3.2510   -5.3710 hc        1 MOL      0.108204
      7 N1          6.6800    0.9350   -3.2560 n         1 MOL     -0.537572
      8 C3          6.6150    0.3690   -1.9300 c3        1 MOL      0.124167
      9 C4          6.2700    1.3130   -0.7570 c         1 MOL      0.379394
     10 O2          6.4710    0.9860    0.4210 o         1 MOL     -0.479206
     11 C5          5.9270   -0.9750   -1.9810 c3        1 MOL     -0.222937
     12 C6          6.2730   -1.8720   -0.7850 c         1 MOL      0.768932
     13 O3          7.4740   -1.9560   -0.3690 o         1 MOL     -0.700747
     14 O4          5.3390   -2.4020   -0.2180 o         1 MOL     -0.700747
     15 H4          7.5830    0.9630   -3.7080 hn        1 MOL      0.305576
     16 H5          7.6730    0.1390   -1.8080 h1        1 MOL      0.039683
     17 H6          6.3060   -1.5260   -2.8460 hc        1 MOL      0.065228
     18 H7          4.8400   -0.8790   -2.0180 hc        1 MOL      0.065228
     19 N2          5.8260    2.5600   -0.9300 n         1 MOL     -0.315401
     20 C7          5.7630    3.5230    0.2000 c3        1 MOL      0.019327
     21 C8          4.4170    3.4440    0.9990 c         1 MOL      0.556407
     22 O5          3.7500    4.4520    0.9850 o         1 MOL     -0.563185
     23 C9          6.1320    4.8830   -0.4570 c3        1 MOL      0.070949
     24 C10         7.5470    5.0520   -0.9920 c3        1 MOL      0.146530
     25 C11         7.6770    6.3220   -1.8200 c3        1 MOL     -0.196569
     26 C12         9.1460    6.4920   -2.3170 c3        1 MOL      0.048386
     27 N3         10.1980    6.5840   -1.2910 n4        1 MOL     -0.208015
     28 H8          5.5940    2.8210   -1.8850 hn        1 MOL      0.270874
     29 H9          6.4500    3.2990    1.0070 h1        1 MOL      0.038758
     30 H10         5.9900    5.6900    0.2650 hc        1 MOL     -0.001134
     31 H11         5.3780    5.0880   -1.2170 hc        1 MOL     -0.001134
     32 H12         7.8020    4.2350   -1.6680 hc        1 MOL     -0.051982
     33 H13         8.1220    5.0870   -0.0700 hc        1 MOL     -0.051982
     34 H14         7.3380    7.1540   -1.1990 hc        1 MOL      0.086830
     35 H15         7.0460    6.2130   -2.7050 hc        1 MOL      0.086830
     36 H16         9.3750    7.3460   -2.9580 hx        1 MOL      0.069421
     37 H17         9.3320    5.6360   -2.9700 hx        1 MOL      0.069421
     38 H18        10.0800    7.3530   -0.6480 hn        1 MOL      0.278409
     39 H19        10.2630    5.8070   -0.6420 hn        1 MOL      0.278409
     40 H20        11.0970    6.5420   -1.7460 hn        1 MOL      0.278409
     41 N4          4.0530    2.3280    1.5030 n         1 MOL     -0.381957
     42 C13         2.7610    2.0190    2.1020 c3        1 MOL      0.013251
     43 C14         2.9640    1.3260    3.4450 c         1 MOL      0.493766
     44 O6          3.7490    0.3590    3.6340 o         1 MOL     -0.459530
     45 C15         1.8530    1.2070    1.2110 c3        1 MOL      0.028426
     46 C16         0.5690    0.7530    1.9110 c         1 MOL      0.760659
     47 O7          0.5400   -0.0920    2.8310 o         1 MOL     -0.801099
     48 O8         -0.5340    1.3020    1.6710 o         1 MOL     -0.801099
     49 H21         4.7080    1.5650    1.5450 hn        1 MOL      0.258018
     50 H22         2.3050    2.9960    2.2220 h1        1 MOL      0.025940
     51 H23         2.4140    0.3980    0.7530 hc        1 MOL      0.040411
     52 H24         1.6430    1.8740    0.3660 hc        1 MOL      0.040411
     53 N5          2.1810    1.7410    4.4770 n         1 MOL     -0.447363
     54 C17         2.1840    1.2500    5.8420 c3        1 MOL     -0.174117
     55 C18         2.3630   -0.2760    5.9940 c         1 MOL      0.553535
     56 O9          3.1710   -0.7450    6.8000 o         1 MOL     -0.537334
     57 H25         1.3940    2.3390    4.2810 hn        1 MOL      0.337818
     58 H26         1.2430    1.5340    6.3190 h1        1 MOL      0.102660
     59 H27         3.0230    1.7240    6.3430 h1        1 MOL      0.102660
     60 N6          1.6400   -1.1380    5.1950 n         1 MOL     -0.513902
     61 C19         1.6620   -2.6520    5.3110 c3        1 MOL      0.129742
     62 C20         2.0810   -3.1810    3.9080 c         1 MOL      0.588203
     63 O10         2.0890   -4.3870    3.7730 o         1 MOL     -0.590527
     64 C21         0.3040   -3.1780    5.8070 c3        1 MOL     -0.171535
     65 C22        -0.8770   -3.1120    4.7790 c         1 MOL      0.528456
     66 N7         -1.3460   -4.2550    4.3210 n         1 MOL     -0.662662
     67 O11        -1.3550   -2.0990    4.3110 o         1 MOL     -0.616987
     68 H28         1.0310   -0.7810    4.4640 hn        1 MOL      0.275848
     69 H29         2.4600   -2.9720    5.9870 h1        1 MOL      0.087202
     70 H30         0.0680   -2.6060    6.7070 hc        1 MOL      0.064446
     71 H31         0.4480   -4.2050    6.1150 hc        1 MOL      0.064446
     72 H32        -0.8890   -5.1290    4.5510 hn        1 MOL      0.336967
     73 H33        -2.0530   -4.2690    3.5990 hn        1 MOL      0.336967
     74 N8          2.3920   -2.3160    2.9450 n         1 MOL     -0.521279
     75 C23         2.9470   -2.6940    1.6580 c3        1 MOL     -0.005742
     76 C24         1.8530   -2.7140    0.5600 c         1 MOL      0.554389
     77 O12         0.7220   -3.1010    0.8200 o         1 MOL     -0.576917
     78 H34         2.0920   -1.3570    2.9930 hn        1 MOL      0.453491
     79 H35         3.6090   -3.5590    1.6360 h1        1 MOL      0.104907
     80 H36         3.6460   -1.8780    1.4440 h1        1 MOL      0.104907
     81 N9          2.2620   -2.4560   -0.6430 n         1 MOL     -0.354621
     82 C25         1.4230   -2.5300   -1.8630 c3        1 MOL      0.127117
     83 C26         0.4980   -1.3220   -2.0290 c         1 MOL      0.759136
     84 O13         0.9390   -0.2480   -1.6430 o         1 MOL     -0.552668
     85 C27         2.1790   -3.1100   -3.1230 c3        1 MOL     -0.046178
     86 C28         2.8400   -4.4840   -2.8700 ca        1 MOL      0.068419
     87 C29         4.2590   -4.4840   -2.6690 ca        1 MOL     -0.222140
     88 C30         2.1470   -5.7180   -2.9990 ca        1 MOL     -0.222140
     89 C31         4.9460   -5.6330   -2.4530 ca        1 MOL     -0.173532
     90 C32         2.8630   -6.9410   -2.8240 ca        1 MOL     -0.173532
     91 C33         4.2530   -6.8890   -2.5420 ca        1 MOL      0.268298
     92 O14         4.9420   -8.0400   -2.3120 oh        1 MOL     -0.513345
     93 H37         3.2200   -2.1990   -0.8550 hn        1 MOL      0.247483
     94 H38         0.7370   -3.3520   -1.6280 h1        1 MOL     -0.007525
     95 H39         2.9600   -2.3900   -3.3500 hc        1 MOL      0.022336
     96 H40         1.4810   -3.1550   -3.9570 hc        1 MOL      0.022336
     97 H41         4.7990   -3.5570   -2.7760 ha        1 MOL      0.137875
     98 H42         1.0950   -5.7240   -3.2530 ha        1 MOL      0.137875
     99 H43         6.0180   -5.6340   -2.3370 ha        1 MOL      0.134122
    100 H44         2.4050   -7.9190   -2.8590 ha        1 MOL      0.134122
    101 H45         5.8490   -7.8130   -2.1080 ho        1 MOL      0.395935
    102 N10        -0.6320   -1.5960   -2.7140 n         1 MOL     -0.838132
    103 C34        -1.6070   -0.5660   -2.9930 c3        1 MOL     -0.006919
    104 C35        -2.9750   -1.0060   -2.3840 c         1 MOL      0.740633
    105 O15        -3.6810   -0.1280   -1.8620 o         1 MOL     -0.654092
    106 C36        -1.7340   -0.3680   -4.5100 c3        1 MOL      0.210549
    107 C37        -0.3400    0.1130   -5.1150 c3        1 MOL      0.239524
    108 C38        -2.7510    0.7210   -5.0130 c3        1 MOL     -0.435651
    109 C39         0.0750    1.6070   -4.9990 c3        1 MOL     -0.476277
    110 H46        -0.8900   -2.5490   -2.9280 hn        1 MOL      0.337390
    111 H47        -1.2510    0.2790   -2.4090 h1        1 MOL      0.130238
    112 H48        -2.1100   -1.2880   -4.9740 hc        1 MOL     -0.053071
    113 H49        -0.4120   -0.2420   -6.1520 hc        1 MOL     -0.050015
    114 H50         0.4850   -0.4810   -4.7140 hc        1 MOL     -0.050015
    115 H51        -2.5280    1.6740   -4.5600 hc        1 MOL      0.102276
    116 H52        -2.6060    0.7610   -6.0940 hc        1 MOL      0.102276
    117 H53        -3.7580    0.4630   -4.6760 hc        1 MOL      0.102276
    118 H54         1.1530    1.6780   -5.1540 hc        1 MOL      0.137500
    119 H55        -0.5190    2.2510   -5.6500 hc        1 MOL      0.137500
    120 H56        -0.1000    1.9040   -3.9710 hc        1 MOL      0.137500
    121 N11        -3.2360   -2.3030   -2.3010 n         1 MOL     -0.543499
    122 C40        -4.4350   -2.9490   -1.7190 c3        1 MOL      0.228193
    123 C41        -5.7550   -2.3400   -2.2410 c         1 MOL      0.238387
    124 O16        -6.8060   -2.4990   -1.6850 o         1 MOL     -0.469689
    125 C42        -4.5010   -4.5110   -1.9380 c3        1 MOL      0.162049
    126 O17        -3.5730   -5.3130   -1.2450 oh        1 MOL     -0.615708
    127 H57        -2.4800   -2.8890   -2.6160 hn        1 MOL      0.327241
    128 H58        -4.3760   -2.7450   -0.6440 h1        1 MOL      0.019054
    129 H59        -4.4060   -4.6940   -3.0020 h1        1 MOL      0.016835
    130 H60        -5.5030   -4.8380   -1.6390 h1        1 MOL      0.016835
    131 H61        -4.0050   -6.1650   -1.2370 ho        1 MOL      0.417853
    132 N12        -5.6980   -1.6340   -3.3680 n         1 MOL     -0.199228
    133 C43        -6.7840   -0.8060   -3.9440 c3        1 MOL      0.112712
    134 C44        -7.4160    0.2240   -2.9130 c         1 MOL      0.304023
    135 O18        -8.4020    0.9010   -3.2750 o         1 MOL     -0.494386
    136 C45        -7.8520   -1.7370   -4.6080 c3        1 MOL     -0.373738
    137 H62        -4.8800   -1.8040   -3.9400 hn        1 MOL      0.182130
    138 H63        -6.2810   -0.2970   -4.7630 h1        1 MOL      0.077637
    139 H64        -7.2880   -2.5300   -5.1000 hc        1 MOL      0.113167
    140 H65        -8.5390   -2.1430   -3.8670 hc        1 MOL      0.113167
    141 H66        -8.4280   -1.2540   -5.4030 hc        1 MOL      0.113167
    142 N13        -6.7980    0.3390   -1.6760 n         1 MOL     -0.043625
    143 C46        -7.3550    1.1310   -0.6120 c3        1 MOL      0.372470
    144 C47        -6.3900    2.3000   -0.1860 c         1 MOL      0.190360
    145 O19        -5.1530    2.2910   -0.4080 o         1 MOL     -0.410509
    146 C48        -7.5870    0.1980    0.6280 c3        1 MOL     -0.100401
    147 H67        -5.8650   -0.0110   -1.5520 hn        1 MOL      0.131845
    148 H68        -8.3520    1.5000   -0.8140 h1        1 MOL     -0.035284
    149 H69        -7.9130    0.7000    1.5400 hc        1 MOL      0.027936
    150 H70        -8.3330   -0.4970    0.2400 hc        1 MOL      0.027936
    151 H71        -6.6890   -0.4120    0.7480 hc        1 MOL      0.027936
    152 N14        -6.9410    3.4090    0.3400 n         1 MOL     -0.569640
    153 C49        -6.3210    4.7350    0.3870 c3        1 MOL      0.100371
    154 C50        -6.1480    5.4020   -1.0060 c         1 MOL      0.376902
    155 O20        -5.9710    6.6130   -1.1010 o         1 MOL     -0.517043
    156 C51        -4.9750    4.7730    1.1500 c3        1 MOL     -0.003937
    157 C52        -4.9570    4.3930    2.6660 c3        1 MOL      0.072650
    158 C53        -4.8810    2.8370    2.9370 c         1 MOL      0.568526
    159 O21        -5.9100    2.3270    3.4780 o         1 MOL     -0.659008
    160 O22        -3.8250    2.1780    2.6720 o         1 MOL     -0.659008
    161 H72        -7.8650    3.3500    0.7470 hn        1 MOL      0.354194
    162 H73        -7.0060    5.4260    0.8820 h1        1 MOL      0.067854
    163 H74        -4.7050    5.8350    1.0700 hc        1 MOL      0.019751
    164 H75        -4.1590    4.2410    0.6650 hc        1 MOL      0.019751
    165 H76        -5.6980    4.8850    3.2970 hc        1 MOL     -0.039128
    166 H77        -4.0210    4.7760    3.0670 hc        1 MOL     -0.039128
    167 N15        -6.2880    4.5730   -2.0440 n         1 MOL     -0.119982
    168 C54        -6.0570    4.9080   -3.4790 c3        1 MOL     -0.137785
    169 H78        -5.0280    4.6670   -3.7470 h1        1 MOL      0.078681
    170 H79        -6.7390    4.3280   -4.1010 h1        1 MOL      0.078681
    171 H80        -6.2340    5.9710   -3.6380 h1        1 MOL      0.078681
    172 H81        -6.5200    3.6180   -1.8160 hn        1 MOL      0.126141
    173 Ca1        -2.3750   -0.0180    3.0390 Ca        1 MOL      1.692269
    174 O23        -3.4100    0.4080    0.6220 oh        1 MOL     -0.771560
    175 H82        -3.6370    1.3270    0.7650 ho        1 MOL      0.389127
    176 H83        -3.4980    0.2860   -0.3180 ho        1 MOL      0.389127
    177 O24        -1.4250    1.4350    4.9370 oh        1 MOL     -0.771560
    178 H84        -1.1030    0.9350    5.6940 ho        1 MOL      0.389127
    179 H85        -1.6800    2.2800    5.3090 ho        1 MOL      0.389127
    180 O25        -3.6070   -0.2950    5.6490 oh        1 MOL     -0.771560
    181 H86        -4.2220   -0.7590    6.2120 ho        1 MOL      0.389127
    182 H87        -2.8370   -0.1560    6.1890 ho        1 MOL      0.389127
    183 O26        -1.6720   -2.0720    1.3920 oh        1 MOL     -0.771560
    184 H88        -0.7680   -2.2950    1.1990 ho        1 MOL      0.389127
    185 H89        -2.1520   -2.8940    1.2940 ho        1 MOL      0.389127
    186 O27        -4.7850   -1.7390    3.1070 oh        1 MOL     -0.771560
    187 H90        -5.6920   -1.9420    2.8990 ho        1 MOL      0.389127
    188 H91        -4.3140   -2.5690    2.9760 ho        1 MOL      0.389127
@<TRIPOS>BOND
     1    1    2 1   
     2    1    4 1   
     3    1    5 1   
     4    1    6 1   
     5    2    3 2   
     6    2    7 1   
     7    7    8 1   
     8    7   15 1   
     9    8    9 1   
    10    8   11 1   
    11    8   16 1   
    12    9   10 2   
    13    9   19 1   
    14   11   12 1   
    15   11   17 1   
    16   11   18 1   
    17   12   13 1   
    18   12   14 1   
    19   19   20 1   
    20   19   28 1   
    21   20   21 1   
    22   20   23 1   
    23   20   29 1   
    24   21   22 2   
    25   21   41 1   
    26   23   24 1   
    27   23   30 1   
    28   23   31 1   
    29   24   25 1   
    30   24   32 1   
    31   24   33 1   
    32   25   26 1   
    33   25   34 1   
    34   25   35 1   
    35   26   27 1   
    36   26   36 1   
    37   26   37 1   
    38   27   38 1   
    39   27   39 1   
    40   27   40 1   
    41   41   42 1   
    42   41   49 1   
    43   42   43 1   
    44   42   45 1   
    45   42   50 1   
    46   43   44 2   
    47   43   53 1   
    48   45   46 1   
    49   45   51 1   
    50   45   52 1   
    51   46   47 1   
    52   46   48 1   
    53   53   54 1   
    54   53   57 1   
    55   54   55 1   
    56   54   58 1   
    57   54   59 1   
    58   55   56 2   
    59   55   60 1   
    60   60   61 1   
    61   60   68 1   
    62   61   62 1   
    63   61   64 1   
    64   61   69 1   
    65   62   63 2   
    66   62   74 1   
    67   64   65 1   
    68   64   70 1   
    69   64   71 1   
    70   65   66 1   
    71   65   67 2   
    72   66   72 1   
    73   66   73 1   
    74   74   75 1   
    75   74   78 1   
    76   75   76 1   
    77   75   79 1   
    78   75   80 1   
    79   76   77 2   
    80   76   81 1   
    81   81   82 1   
    82   81   93 1   
    83   82   83 1   
    84   82   85 1   
    85   82   94 1   
    86   83   84 2   
    87   83  102 1   
    88   85   86 1   
    89   85   95 1   
    90   85   96 1   
    91   86   87 ar  
    92   86   88 ar  
    93   87   89 ar  
    94   87   97 1   
    95   88   90 ar  
    96   88   98 1   
    97   89   91 ar  
    98   89   99 1   
    99   90   91 ar  
   100   90  100 1   
   101   91   92 1   
   102   92  101 1   
   103  102  103 1   
   104  102  110 1   
   105  103  104 1   
   106  103  106 1   
   107  103  111 1   
   108  104  105 2   
   109  104  121 1   
   110  106  107 1   
   111  106  108 1   
   112  106  112 1   
   113  107  109 1   
   114  107  113 1   
   115  107  114 1   
   116  108  115 1   
   117  108  116 1   
   118  108  117 1   
   119  109  118 1   
   120  109  119 1   
   121  109  120 1   
   122  121  122 1   
   123  121  127 1   
   124  122  123 1   
   125  122  125 1   
   126  122  128 1   
   127  123  124 2   
   128  123  132 1   
   129  125  126 1   
   130  125  129 1   
   131  125  130 1   
   132  126  131 1   
   133  132  133 1   
   134  132  137 1   
   135  133  134 1   
   136  133  136 1   
   137  133  138 1   
   138  134  135 2   
   139  134  142 1   
   140  136  139 1   
   141  136  140 1   
   142  136  141 1   
   143  142  143 1   
   144  142  147 1   
   145  143  144 1   
   146  143  146 1   
   147  143  148 1   
   148  144  145 2   
   149  144  152 1   
   150  146  149 1   
   151  146  150 1   
   152  146  151 1   
   153  152  153 1   
   154  152  161 1   
   155  153  154 1   
   156  153  156 1   
   157  153  162 1   
   158  154  155 2   
   159  154  167 1   
   160  156  157 1   
   161  156  163 1   
   162  156  164 1   
   163  157  158 1   
   164  157  165 1   
   165  157  166 1   
   166  158  159 1   
   167  158  160 1   
   168  167  168 1   
   169  167  172 1   
   170  168  169 1   
   171  168  170 1   
   172  168  171 1   
   173  174  175 1   
   174  174  176 1   
   175  177  178 1   
   176  177  179 1   
   177  180  181 1   
   178  180  182 1   
   179  183  184 1   
   180  183  185 1   
   181  186  187 1   
   182  186  188 1   
@<TRIPOS>SUBSTRUCTURE
     1 MOL         1 TEMP              0 ****  ****    0 ROOT
