@<TRIPOS>MOLECULE
MOL
  185   180     1     0     0
SMALL
resp


@<TRIPOS>ATOM
      1 C1         -5.7390    1.0600   -3.3750 c3        1 MOL     -0.440669
      2 C2         -6.4840    1.1880   -2.0620 c         1 MOL      0.609481
      3 O1         -5.8130    1.2380   -1.0480 o         1 MOL     -0.464842
      4 H1         -5.2320    0.0970   -3.4120 hc        1 MOL      0.112139
      5 H2         -6.4450    1.1300   -4.2030 hc        1 MOL      0.112139
      6 H3         -5.0040    1.8600   -3.4560 hc        1 MOL      0.112139
      7 N1         -7.7470    1.4550   -2.0840 n         1 MOL     -0.386309
      8 C3         -8.6510    1.7120   -0.8510 c3        1 MOL      0.121996
      9 C4         -8.7090    0.6390    0.2020 c         1 MOL      0.303326
     10 O2         -9.1660    0.9280    1.3470 o         1 MOL     -0.470728
     11 C5         -8.3730    3.0770   -0.2180 c3        1 MOL     -0.160522
     12 C6         -8.5030    4.3220   -1.0330 c         1 MOL      0.680760
     13 O3         -7.8730    5.3580   -0.6350 o         1 MOL     -0.667811
     14 O4         -9.0780    4.3380   -2.1300 o         1 MOL     -0.667811
     15 H4         -8.2340    1.3150   -2.9590 hn        1 MOL      0.245949
     16 H5         -9.6520    1.8630   -1.2470 h1        1 MOL      0.058150
     17 H6         -7.3890    3.0900    0.2530 hc        1 MOL      0.069855
     18 H7         -9.0460    3.1850    0.6400 hc        1 MOL      0.069855
     19 N2         -8.1230   -0.5490   -0.0200 n         1 MOL     -0.247016
     20 C7         -8.0590   -1.6540    0.9650 c3        1 MOL      0.085366
     21 C8         -6.6470   -2.2610    0.9840 c         1 MOL      0.542936
     22 O5         -6.3530   -3.3930    1.4520 o         1 MOL     -0.564206
     23 C9         -9.0020   -2.7440    0.4700 c3        1 MOL     -0.072850
     24 C10       -10.4480   -2.3860    0.0730 c3        1 MOL      0.064754
     25 C11       -11.2400   -3.5430   -0.4870 c3        1 MOL     -0.116570
     26 C12       -10.7500   -3.8110   -1.9240 c3        1 MOL      0.048938
     27 N3        -11.2870   -5.0800   -2.4260 n4        1 MOL     -0.195468
     28 H8         -7.7960   -0.7430   -0.9540 hn        1 MOL      0.132644
     29 H9         -8.3400   -1.3320    1.9640 h1        1 MOL      0.112985
     30 H10        -8.9730   -3.6330    1.1070 hc        1 MOL      0.019969
     31 H11        -8.5840   -3.2100   -0.4240 hc        1 MOL      0.019969
     32 H12       -10.5270   -1.5640   -0.6460 hc        1 MOL      0.014145
     33 H13       -10.8820   -2.0160    1.0020 hc        1 MOL      0.014145
     34 H14       -12.3100   -3.3340   -0.4580 hc        1 MOL      0.064824
     35 H15       -10.9910   -4.3630    0.1900 hc        1 MOL      0.064824
     36 H16        -9.6680   -3.8850   -2.0250 hx        1 MOL      0.066788
     37 H17       -11.1680   -3.0110   -2.5290 hx        1 MOL      0.066788
     38 H18       -10.9210   -5.2700   -3.3450 hn        1 MOL      0.253479
     39 H19       -11.0890   -5.8750   -1.8290 hn        1 MOL      0.253479
     40 H20       -12.2970   -5.1630   -2.4380 hn        1 MOL      0.253479
     41 N4         -5.5560   -1.4770    0.5930 n         1 MOL     -0.479179
     42 C13        -4.1400   -2.0060    0.4220 c3        1 MOL     -0.037032
     43 C14        -3.5040   -2.5300    1.6180 c         1 MOL      0.705054
     44 O6         -3.6340   -1.9960    2.7130 o         1 MOL     -0.515920
     45 C15        -3.2940   -0.8260   -0.2830 c3        1 MOL     -0.311687
     46 C16        -1.7790   -1.1780   -0.3990 c         1 MOL      0.397878
     47 O7         -0.9510   -0.8770    0.4570 o         1 MOL     -0.624830
     48 O8         -1.4450   -1.7300   -1.4330 o         1 MOL     -0.624830
     49 H21        -5.8220   -0.6380    0.1120 hn        1 MOL      0.239146
     50 H22        -4.1950   -2.8680   -0.2550 h1        1 MOL      0.058840
     51 H23        -3.3530    0.0920    0.2880 hc        1 MOL      0.188172
     52 H24        -3.7030   -0.6020   -1.2740 hc        1 MOL      0.188172
     53 N5         -2.7910   -3.6420    1.3930 n         1 MOL     -0.316655
     54 C17        -2.1800   -4.5470    2.3590 c3        1 MOL     -0.161239
     55 C18        -1.1020   -3.9030    3.2890 c         1 MOL      0.580790
     56 O9         -0.5690   -4.6130    4.1800 o         1 MOL     -0.557914
     57 H25        -2.6640   -3.9690    0.4480 hn        1 MOL      0.221619
     58 H26        -1.5950   -5.2980    1.8240 h1        1 MOL      0.099432
     59 H27        -2.9650   -5.0420    2.9390 h1        1 MOL      0.099432
     60 N6         -0.6950   -2.6450    3.0520 n         1 MOL     -0.474465
     61 C19         0.1400   -1.8310    3.9210 c3        1 MOL      0.196146
     62 C20        -0.2600   -0.3520    3.9210 c         1 MOL      0.312285
     63 O10         0.5350    0.5180    4.3490 o         1 MOL     -0.546466
     64 C21         1.6310   -2.1090    3.6330 c3        1 MOL     -0.585785
     65 C22         2.2590   -1.3560    2.5090 c         1 MOL      0.772885
     66 N7          3.1250   -0.4350    2.7510 n         1 MOL     -0.759095
     67 O11         2.0560   -1.7720    1.3630 o         1 MOL     -0.607996
     68 H28        -0.9880   -2.1890    2.1910 hn        1 MOL      0.376516
     69 H29        -0.0470   -2.1000    4.9600 h1        1 MOL      0.095111
     70 H30         1.6830   -3.1660    3.3630 hc        1 MOL      0.193046
     71 H31         2.2240   -1.8590    4.5080 hc        1 MOL      0.193046
     72 H32         3.3590   -0.2140    3.7140 hn        1 MOL      0.344347
     73 H33         3.6290    0.2000    2.1390 hn        1 MOL      0.344347
     74 N8         -1.4190   -0.0180    3.4710 n         1 MOL     -0.015967
     75 C23        -1.9040    1.3900    3.5020 c3        1 MOL     -0.205721
     76 C24        -1.6280    2.2650    2.2000 c         1 MOL      0.502065
     77 O12        -1.9480    3.4230    2.2440 o         1 MOL     -0.499066
     78 H34        -2.0390   -0.7690    3.2030 hn        1 MOL      0.052906
     79 H35        -1.5260    1.9400    4.3560 h1        1 MOL      0.119076
     80 H36        -2.9580    1.3780    3.7670 h1        1 MOL      0.119076
     81 N9         -0.8730    1.7510    1.2320 n         1 MOL     -0.273350
     82 C25        -0.2670    2.4520    0.0420 c3        1 MOL      0.081906
     83 C26         1.0680    1.8780   -0.4010 c         1 MOL      0.302921
     84 O13         1.3470    0.6960   -0.1940 o         1 MOL     -0.340413
     85 C27        -1.3560    2.4890   -1.0020 c3        1 MOL      0.284163
     86 C28        -2.3140    3.6670   -0.9910 ca        1 MOL     -0.326005
     87 C29        -2.0120    4.8940   -1.3950 ca        1 MOL      0.038532
     88 C30        -3.5750    3.4670   -0.4190 ca        1 MOL      0.038532
     89 C31        -2.9580    5.9380   -1.4950 ca        1 MOL     -0.274036
     90 C32        -4.5730    4.4720   -0.5090 ca        1 MOL     -0.274036
     91 C33        -4.2890    5.6960   -1.1250 ca        1 MOL      0.395258
     92 O14        -5.2050    6.7010   -1.2570 oh        1 MOL     -0.547836
     93 H37        -0.6520    0.7630    1.2540 hn        1 MOL      0.139230
     94 H38        -0.1060    3.4780    0.3580 h1        1 MOL      0.035859
     95 H39        -1.8600    1.5250   -1.0640 hc        1 MOL     -0.039838
     96 H40        -0.8310    2.6310   -1.9470 hc        1 MOL     -0.039838
     97 H41        -1.0310    5.0210   -1.8260 ha        1 MOL      0.032964
     98 H42        -3.8620    2.5040   -0.0150 ha        1 MOL      0.032964
     99 H43        -2.6270    6.8970   -1.8420 ha        1 MOL      0.121769
    100 H44        -5.5530    4.1310   -0.1910 ha        1 MOL      0.121769
    101 H45        -6.0970    6.4040   -1.0490 ho        1 MOL      0.412911
    102 N10         2.0020    2.7170   -0.8910 n         1 MOL     -0.385599
    103 C34         3.4230    2.3280   -1.0900 c3        1 MOL      0.357689
    104 C35         4.2290    2.2070    0.1970 c         1 MOL      0.121903
    105 O15         4.6350    1.0580    0.5110 o         1 MOL     -0.246795
    106 C36         4.1590    3.3170   -2.0420 c3        1 MOL      0.035870
    107 C37         3.5410    3.4940   -3.4190 c3        1 MOL     -0.026946
    108 C38         5.6160    2.8620   -2.3380 c3        1 MOL     -0.399249
    109 C39         3.4670    2.2990   -4.3590 c3        1 MOL     -0.249096
    110 H46         1.8960    3.7150   -0.7450 hn        1 MOL      0.263446
    111 H47         3.5490    1.3180   -1.4680 h1        1 MOL     -0.085284
    112 H48         4.1580    4.2800   -1.5390 hc        1 MOL     -0.044352
    113 H49         4.0910    4.2580   -3.9650 hc        1 MOL      0.029920
    114 H50         2.5590    3.8670   -3.1540 hc        1 MOL      0.029920
    115 H51         6.2120    3.5830   -2.9030 hc        1 MOL      0.108472
    116 H52         6.1660    2.6320   -1.4200 hc        1 MOL      0.108472
    117 H53         5.5980    1.9200   -2.8960 hc        1 MOL      0.108472
    118 H54         3.2670    1.4030   -3.7710 hc        1 MOL      0.081381
    119 H55         2.6700    2.4110   -5.0870 hc        1 MOL      0.081381
    120 H56         4.4230    2.1780   -4.8740 hc        1 MOL      0.081381
    121 N11         4.3670    3.3080    1.0150 n         1 MOL     -0.241512
    122 C40         5.0770    3.2840    2.2490 c3        1 MOL     -0.072307
    123 C41         6.5420    2.8680    2.0870 c         1 MOL      0.293110
    124 O16         7.1100    2.3090    3.0300 o         1 MOL     -0.461798
    125 C42         5.0250    4.6530    2.8210 c3        1 MOL      0.223420
    126 O17         3.7840    5.0380    3.1990 oh        1 MOL     -0.603950
    127 H57         3.8820    4.1600    0.7630 hn        1 MOL      0.305989
    128 H58         4.5490    2.6630    2.9640 h1        1 MOL      0.135771
    129 H59         5.4980    5.3040    2.0850 h1        1 MOL      0.016714
    130 H60         5.6810    4.7040    3.6870 h1        1 MOL      0.016714
    131 H61         3.8880    5.3430    4.1010 ho        1 MOL      0.426733
    132 N12         7.2080    3.1320    0.9770 n         1 MOL     -0.226194
    133 C43         8.5760    2.7230    0.5080 c3        1 MOL      0.087041
    134 C44         8.8230    1.2320    0.4750 c         1 MOL      0.458669
    135 O18         9.9280    0.7050    0.2830 o         1 MOL     -0.537937
    136 C45         9.6220    3.5560    1.2830 c3        1 MOL     -0.402257
    137 H62         6.7370    3.7340    0.3170 hn        1 MOL      0.217633
    138 H63         8.6150    2.9380   -0.5620 h1        1 MOL      0.092059
    139 H64         9.7270    3.3920    2.3560 hc        1 MOL      0.126061
    140 H65        10.6210    3.4020    0.8550 hc        1 MOL      0.126061
    141 H66         9.4350    4.5910    1.0390 hc        1 MOL      0.126061
    142 N13         7.6930    0.5310    0.6320 n         1 MOL     -0.133429
    143 C46         7.6490   -0.9080    0.7310 c3        1 MOL      0.065236
    144 C47         7.2650   -1.5960   -0.5810 c         1 MOL      0.414658
    145 O19         6.5520   -1.0530   -1.3500 o         1 MOL     -0.437370
    146 C48         6.6670   -1.2930    1.9190 c3        1 MOL     -0.139753
    147 H67         6.8530    1.0780    0.7590 hn        1 MOL      0.023010
    148 H68         8.6260   -1.3310    0.9860 h1        1 MOL      0.053810
    149 H69         5.6190   -1.1740    1.6470 hc        1 MOL      0.057117
    150 H70         6.7100   -2.3650    2.0950 hc        1 MOL      0.057117
    151 H71         6.8130   -0.7990    2.8700 hc        1 MOL      0.057117
    152 N14         7.5940   -2.8800   -0.7650 n         1 MOL     -0.678950
    153 C49         7.2120   -3.8250   -1.8300 c3        1 MOL     -0.073910
    154 C50         7.7380   -3.4790   -3.3080 c         1 MOL      0.519144
    155 O20         7.4200   -4.1830   -4.2580 o         1 MOL     -0.511744
    156 C51         5.6750   -3.9190   -1.8270 c3        1 MOL     -0.014140
    157 C52         5.0790   -4.2200   -0.4840 c3        1 MOL      0.207909
    158 C53         3.5840   -4.5800   -0.4910 c         1 MOL      0.479015
    159 O21         3.2310   -5.5000    0.2810 o         1 MOL     -0.656188
    160 O22         2.7460   -3.8290   -1.0330 o         1 MOL     -0.656188
    161 H72         8.0980   -3.2630    0.0300 hn        1 MOL      0.383419
    162 H73         7.6130   -4.8020   -1.5590 h1        1 MOL      0.125442
    163 H74         5.3980   -4.7050   -2.5300 hc        1 MOL      0.006398
    164 H75         5.2160   -3.0000   -2.2020 hc        1 MOL      0.006398
    165 H76         5.2950   -3.4110    0.2200 hc        1 MOL     -0.036703
    166 H77         5.6330   -5.0520   -0.0500 hc        1 MOL     -0.036703
    167 N15         8.5160   -2.4030   -3.4380 n         1 MOL     -0.347895
    168 C54         8.8720   -1.7790   -4.7140 c3        1 MOL     -0.197895
    169 H78         9.1690   -2.5500   -5.4240 h1        1 MOL      0.108738
    170 H79         8.0120   -1.2360   -5.1060 h1        1 MOL      0.108738
    171 H80         9.7010   -1.0880   -4.5620 h1        1 MOL      0.108738
    172 H81         8.6590   -1.8950   -2.5800 hn        1 MOL      0.309514
    173 Ca1         1.2020   -1.8610   -1.0330 Ca        1 MOL      1.710044
    174 O23         3.7930   -1.1210   -1.3220 oh        1 MOL     -0.836453
    175 H82         4.0610   -0.5380   -0.6160 ho        1 MOL      0.408574
    176 H83         4.6030   -1.4260   -1.7120 ho        1 MOL      0.408574
    177 O24         0.0770   -4.1040    0.2660 oh        1 MOL     -0.836453
    178 H84         0.7130   -4.7350    0.6140 ho        1 MOL      0.408574
    179 H85        -0.5200   -4.6430   -0.2580 ho        1 MOL      0.408574
    180 O25         0.6160   -3.5880   -3.2000 oh        1 MOL     -0.836453
    181 H86         1.1460   -4.3490   -2.9730 ho        1 MOL      0.408574
    182 H87         0.0340   -3.9090   -3.9010 ho        1 MOL      0.408574
    183 O26         1.0020   -0.6570   -3.3480 oh        1 MOL     -0.836453
    184 H88         0.5950    0.1420   -3.6830 ho        1 MOL      0.408574
    185 H89         1.1560   -1.1920   -4.1380 ho        1 MOL      0.408574
@<TRIPOS>BOND
     1    1    2 1   
     2    1    4 1   
     3    1    5 1   
     4    1    6 1   
     5    2    3 2   
     6    2    7 1   
     7    7    8 1   
     8    7   15 1   
     9    8    9 1   
    10    8   11 1   
    11    8   16 1   
    12    9   10 2   
    13    9   19 1   
    14   11   12 1   
    15   11   17 1   
    16   11   18 1   
    17   12   13 1   
    18   12   14 1   
    19   19   20 1   
    20   19   28 1   
    21   20   21 1   
    22   20   23 1   
    23   20   29 1   
    24   21   22 2   
    25   21   41 1   
    26   23   24 1   
    27   23   30 1   
    28   23   31 1   
    29   24   25 1   
    30   24   32 1   
    31   24   33 1   
    32   25   26 1   
    33   25   34 1   
    34   25   35 1   
    35   26   27 1   
    36   26   36 1   
    37   26   37 1   
    38   27   38 1   
    39   27   39 1   
    40   27   40 1   
    41   41   42 1   
    42   41   49 1   
    43   42   43 1   
    44   42   45 1   
    45   42   50 1   
    46   43   44 2   
    47   43   53 1   
    48   45   46 1   
    49   45   51 1   
    50   45   52 1   
    51   46   47 1   
    52   46   48 1   
    53   53   54 1   
    54   53   57 1   
    55   54   55 1   
    56   54   58 1   
    57   54   59 1   
    58   55   56 2   
    59   55   60 1   
    60   60   61 1   
    61   60   68 1   
    62   61   62 1   
    63   61   64 1   
    64   61   69 1   
    65   62   63 2   
    66   62   74 1   
    67   64   65 1   
    68   64   70 1   
    69   64   71 1   
    70   65   66 1   
    71   65   67 2   
    72   66   72 1   
    73   66   73 1   
    74   74   75 1   
    75   74   78 1   
    76   75   76 1   
    77   75   79 1   
    78   75   80 1   
    79   76   77 2   
    80   76   81 1   
    81   81   82 1   
    82   81   93 1   
    83   82   83 1   
    84   82   85 1   
    85   82   94 1   
    86   83   84 2   
    87   83  102 1   
    88   85   86 1   
    89   85   95 1   
    90   85   96 1   
    91   86   87 ar  
    92   86   88 ar  
    93   87   89 ar  
    94   87   97 1   
    95   88   90 ar  
    96   88   98 1   
    97   89   91 ar  
    98   89   99 1   
    99   90   91 ar  
   100   90  100 1   
   101   91   92 1   
   102   92  101 1   
   103  102  103 1   
   104  102  110 1   
   105  103  104 1   
   106  103  106 1   
   107  103  111 1   
   108  104  105 2   
   109  104  121 1   
   110  106  107 1   
   111  106  108 1   
   112  106  112 1   
   113  107  109 1   
   114  107  113 1   
   115  107  114 1   
   116  108  115 1   
   117  108  116 1   
   118  108  117 1   
   119  109  118 1   
   120  109  119 1   
   121  109  120 1   
   122  121  122 1   
   123  121  127 1   
   124  122  123 1   
   125  122  125 1   
   126  122  128 1   
   127  123  124 2   
   128  123  132 1   
   129  125  126 1   
   130  125  129 1   
   131  125  130 1   
   132  126  131 1   
   133  132  133 1   
   134  132  137 1   
   135  133  134 1   
   136  133  136 1   
   137  133  138 1   
   138  134  135 2   
   139  134  142 1   
   140  136  139 1   
   141  136  140 1   
   142  136  141 1   
   143  142  143 1   
   144  142  147 1   
   145  143  144 1   
   146  143  146 1   
   147  143  148 1   
   148  144  145 2   
   149  144  152 1   
   150  146  149 1   
   151  146  150 1   
   152  146  151 1   
   153  152  153 1   
   154  152  161 1   
   155  153  154 1   
   156  153  156 1   
   157  153  162 1   
   158  154  155 2   
   159  154  167 1   
   160  156  157 1   
   161  156  163 1   
   162  156  164 1   
   163  157  158 1   
   164  157  165 1   
   165  157  166 1   
   166  158  159 1   
   167  158  160 1   
   168  167  168 1   
   169  167  172 1   
   170  168  169 1   
   171  168  170 1   
   172  168  171 1   
   173  174  175 1   
   174  174  176 1   
   175  177  178 1   
   176  177  179 1   
   177  180  181 1   
   178  180  182 1   
   179  183  184 1   
   180  183  185 1   
@<TRIPOS>SUBSTRUCTURE
     1 MOL         1 TEMP              0 ****  ****    0 ROOT
