@<TRIPOS>MOLECULE
MOL
  175   173     1     0     0
SMALL
resp


@<TRIPOS>ATOM
      1 C1         -6.5060    7.8060    1.9180 c3        1 MOL     -0.483232
      2 C2         -7.2490    7.0050    0.8370 c         1 MOL      0.748222
      3 O1         -7.2690    7.4860   -0.2930 o         1 MOL     -0.596040
      4 H1         -6.0230    7.1180    2.6130 hc        1 MOL      0.114455
      5 H2         -5.7500    8.4360    1.4480 hc        1 MOL      0.114455
      6 H3         -7.2150    8.4310    2.4600 hc        1 MOL      0.114455
      7 N1         -7.6480    5.7700    1.1670 n         1 MOL     -0.648576
      8 C3         -8.4460    4.9660    0.2090 c3        1 MOL      0.386933
      9 C4         -7.6520    3.9770   -0.5880 c         1 MOL      0.505547
     10 O2         -7.9870    2.7690   -0.7270 o         1 MOL     -0.486050
     11 C5         -9.4990    4.2610    1.0090 c3        1 MOL     -0.285938
     12 C6        -10.6540    3.8310    0.1190 c         1 MOL      0.657489
     13 O3        -11.0620    4.5300   -0.8600 o         1 MOL     -0.709903
     14 O4        -11.1160    2.6870    0.2610 o         1 MOL     -0.709903
     15 H4         -7.5520    5.4080    2.1000 hn        1 MOL      0.330618
     16 H5         -8.9240    5.6490   -0.4970 h1        1 MOL     -0.037737
     17 H6         -9.8270    5.0140    1.7210 hc        1 MOL      0.034415
     18 H7         -9.2360    3.3660    1.5770 hc        1 MOL      0.034415
     19 N2         -6.4130    4.3980   -0.9070 n         1 MOL     -0.618833
     20 C7         -5.3910    3.4950   -1.3520 c3        1 MOL      0.226984
     21 C8         -4.8140    2.6810   -0.1630 c         1 MOL      0.587760
     22 O5         -4.4020    3.2520    0.8660 o         1 MOL     -0.576611
     23 C9         -4.3150    4.2040   -2.0310 c3        1 MOL     -0.252311
     24 H8         -6.2170    5.3890   -0.8630 hn        1 MOL      0.333341
     25 H9         -5.8900    2.8730   -2.0960 h1        1 MOL      0.081989
     26 H10        -3.6040    3.4910   -2.4660 hc        1 MOL      0.068093
     27 H11        -4.5860    4.9400   -2.7780 hc        1 MOL      0.068093
     28 H12        -3.6530    4.7150   -1.3270 hc        1 MOL      0.068093
     29 N3         -4.6720    1.3740   -0.1950 n         1 MOL     -0.398111
     30 C10        -5.0730    0.4490   -1.2840 c3        1 MOL     -0.195358
     31 C11        -5.4660   -0.9710   -0.7540 c         1 MOL      0.670663
     32 O6         -4.9390   -1.4790    0.2110 o         1 MOL     -0.556860
     33 C12        -4.0480    0.3220   -2.3810 c3        1 MOL     -0.021825
     34 C13        -2.7150    0.0030   -1.8530 c         1 MOL      0.734760
     35 O7         -2.2220   -1.1260   -2.1870 o         1 MOL     -0.748801
     36 O8         -2.0140    0.7510   -1.1540 o         1 MOL     -0.748801
     37 H13        -4.0880    0.9890    0.5470 hn        1 MOL      0.259159
     38 H14        -5.9390    0.9030   -1.7660 h1        1 MOL      0.046094
     39 H15        -3.9810    1.2650   -2.9220 hc        1 MOL      0.006906
     40 H16        -4.3310   -0.4940   -3.0490 hc        1 MOL      0.006906
     41 N4         -6.3900   -1.5790   -1.4550 n         1 MOL     -0.416525
     42 C14        -6.9430   -2.8980   -1.0930 c3        1 MOL      0.067741
     43 C15        -6.6650   -4.0740   -2.1070 c         1 MOL      0.501233
     44 O9         -7.6190   -4.5760   -2.7070 o         1 MOL     -0.546516
     45 H17        -6.8090   -1.0780   -2.2260 hn        1 MOL      0.313880
     46 H18        -8.0270   -2.7920   -0.9990 h1        1 MOL      0.053066
     47 H19        -6.4960   -3.0690   -0.1240 h1        1 MOL      0.053066
     48 N5         -5.4800   -4.7070   -2.2870 n         1 MOL     -0.483051
     49 C16        -4.2600   -4.3380   -1.5520 c3        1 MOL      0.039288
     50 C17        -4.1850   -5.0730   -0.1710 c         1 MOL      0.631217
     51 O10        -4.4110   -6.2860   -0.1490 o         1 MOL     -0.589769
     52 C18        -3.0210   -4.5760   -2.4250 c3        1 MOL     -0.187459
     53 C19        -1.6960   -4.0960   -1.8340 c         1 MOL      0.558411
     54 N6         -0.6310   -4.2290   -2.5530 n         1 MOL     -0.586470
     55 O11        -1.5970   -3.4660   -0.8050 o         1 MOL     -0.627688
     56 H20        -5.4520   -5.4210   -3.0020 hn        1 MOL      0.325672
     57 H21        -4.2810   -3.2830   -1.2640 h1        1 MOL      0.082441
     58 H22        -3.2160   -4.0420   -3.3520 hc        1 MOL      0.076290
     59 H23        -2.9320   -5.6360   -2.6210 hc        1 MOL      0.076290
     60 H24        -0.6440   -4.7970   -3.3950 hn        1 MOL      0.300677
     61 H25         0.2470   -3.8650   -2.2150 hn        1 MOL      0.300677
     62 N7         -3.9000   -4.5000    0.9460 n         1 MOL     -0.419189
     63 C20        -3.6010   -5.1970    2.1930 c3        1 MOL     -0.024868
     64 C21        -2.1180   -5.6380    2.3690 c         1 MOL      0.409798
     65 O12        -1.8230   -6.5660    3.1450 o         1 MOL     -0.579024
     66 H26        -3.6870   -3.5230    0.8300 hn        1 MOL      0.274596
     67 H27        -4.2560   -6.0550    2.3270 h1        1 MOL      0.082984
     68 H28        -3.8190   -4.5800    3.0660 h1        1 MOL      0.082984
     69 N8         -1.1820   -5.0460    1.7190 n         1 MOL     -0.095120
     70 C22         0.2640   -5.2850    1.9160 c3        1 MOL     -0.075688
     71 C23         1.0450   -3.9960    1.9060 c         1 MOL      0.167393
     72 O13         0.6330   -2.9510    1.3790 o         1 MOL     -0.461643
     73 C24         0.8040   -6.2610    0.8560 c3        1 MOL      0.423269
     74 C25         0.2670   -7.7530    0.9630 c3        1 MOL     -0.382214
     75 O14         0.6710   -5.8130   -0.4190 oh        1 MOL     -0.559181
     76 H29        -1.3430   -4.2700    1.0950 hn        1 MOL      0.203504
     77 H30         0.4260   -5.8490    2.8380 h1        1 MOL      0.078771
     78 H31         1.8780   -6.3390    1.0160 h1        1 MOL     -0.039112
     79 H32         1.1230   -4.9660   -0.4410 ho        1 MOL      0.301084
     80 H33         0.5350   -8.3500    0.0880 hc        1 MOL      0.100393
     81 H34         0.7350   -8.2290    1.8190 hc        1 MOL      0.100393
     82 H35        -0.7840   -7.8900    1.2290 hc        1 MOL      0.100393
     83 N9          2.1370   -3.9730    2.6300 n         1 MOL     -0.041475
     84 C26         3.0800   -2.8860    2.7320 c3        1 MOL      0.004635
     85 C27         4.1510   -3.1710    1.6950 c         1 MOL      0.263500
     86 O15         5.0290   -4.0300    1.8460 o         1 MOL     -0.532119
     87 C28         3.5230   -2.7110    4.1870 c3        1 MOL      0.175978
     88 C29         4.5060   -1.5480    4.2980 c3        1 MOL      0.059462
     89 C30         2.3190   -2.4810    5.1670 c3        1 MOL     -0.503306
     90 C31         4.0250   -0.1580    3.8910 c3        1 MOL     -0.195097
     91 H36         2.3440   -4.8300    3.1200 hn        1 MOL      0.166096
     92 H37         2.4600   -2.0180    2.5200 h1        1 MOL      0.101063
     93 H38         4.1340   -3.5610    4.4770 hc        1 MOL     -0.007776
     94 H39         5.5000   -1.6330    3.8680 hc        1 MOL     -0.020899
     95 H40         4.7360   -1.4920    5.3640 hc        1 MOL     -0.020899
     96 H41         1.6380   -3.3290    5.2140 hc        1 MOL      0.125132
     97 H42         2.6880   -2.4390    6.1950 hc        1 MOL      0.125132
     98 H43         1.6910   -1.6430    4.8850 hc        1 MOL      0.125132
     99 H44         3.0020   -0.0860    4.2680 hc        1 MOL      0.061885
    100 H45         4.6590    0.7090    4.0820 hc        1 MOL      0.061885
    101 H46         3.9430   -0.1830    2.8000 hc        1 MOL      0.061885
    102 N10         3.9220   -2.5230    0.5200 n         1 MOL     -0.182554
    103 C32         4.6240   -2.8170   -0.7480 c3        1 MOL      0.118608
    104 C33         5.2650   -1.5570   -1.3730 c         1 MOL      0.330412
    105 O16         5.5760   -1.6030   -2.5790 o         1 MOL     -0.496231
    106 C34         3.6410   -3.4700   -1.7590 c3        1 MOL     -0.123577
    107 C35         2.4040   -2.5810   -2.1500 c         1 MOL      0.679168
    108 O17         2.3990   -1.8070   -3.1490 o         1 MOL     -0.651112
    109 O18         1.3760   -2.7150   -1.4670 o         1 MOL     -0.651112
    110 H47         3.1240   -1.8950    0.4750 hn        1 MOL      0.313272
    111 H48         5.4470   -3.5220   -0.6080 h1        1 MOL      0.068686
    112 H49         3.3070   -4.3570   -1.2260 hc        1 MOL      0.020950
    113 H50         4.2410   -3.8220   -2.6050 hc        1 MOL      0.020950
    114 N11         5.4710   -0.4250   -0.6880 n         1 MOL     -0.332641
    115 C36         6.2660    0.6730   -1.1250 c3        1 MOL      0.504722
    116 C37         6.0350    2.0210   -0.3770 c         1 MOL      0.384723
    117 O19         5.7790    2.0220    0.8200 o         1 MOL     -0.519268
    118 C38         7.7570    0.2150   -1.0270 c3        1 MOL     -0.439800
    119 C39         8.7540    0.9290   -1.8910 ca        1 MOL      0.154061
    120 C40         9.5730    1.9840   -1.4360 ca        1 MOL     -0.160270
    121 C41         8.8610    0.5580   -3.2750 ca        1 MOL     -0.160270
    122 C42        10.4290    2.6620   -2.3110 ca        1 MOL     -0.095987
    123 C43         9.6970    1.2250   -4.1840 ca        1 MOL     -0.095987
    124 C44        10.5040    2.3040   -3.6710 ca        1 MOL     -0.176177
    125 H51         5.0650   -0.3750    0.2310 hn        1 MOL      0.108857
    126 H52         5.8740    0.8880   -2.1230 h1        1 MOL     -0.030621
    127 H53         7.8650   -0.8310   -1.3310 hc        1 MOL      0.137904
    128 H54         8.1240    0.3000   -0.0120 hc        1 MOL      0.137904
    129 H55         9.4900    2.3630   -0.4250 ha        1 MOL      0.109215
    130 H56         8.1360   -0.1760   -3.6020 ha        1 MOL      0.109215
    131 H57        10.9490    3.5020   -1.8810 ha        1 MOL      0.113787
    132 H58         9.7650    0.9820   -5.2330 ha        1 MOL      0.113787
    133 H59        11.0980    2.9390   -4.3070 ha        1 MOL      0.111667
    134 N12         6.1330    3.1940   -1.0630 n         1 MOL     -0.171833
    135 C45         6.2560    4.5560   -0.4940 c3        1 MOL      0.015654
    136 C46         5.0600    5.0530    0.4140 c         1 MOL      0.396545
    137 O20         5.0930    6.1870    0.9670 o         1 MOL     -0.552932
    138 C47         6.3500    5.4770   -1.6810 c3        1 MOL     -0.123592
    139 C48         6.9230    4.5970   -2.7520 c3        1 MOL     -0.065866
    140 C49         6.2080    3.3180   -2.4550 c3        1 MOL     -0.012416
    141 H60         7.2490    4.5890   -0.0460 h1        1 MOL      0.073145
    142 H61         5.3590    5.8350   -1.9680 hc        1 MOL      0.077577
    143 H62         6.9050    6.3570   -1.3570 hc        1 MOL      0.077577
    144 H63         6.6080    4.9920   -3.7230 hc        1 MOL      0.037054
    145 H64         8.0060    4.5160   -2.6950 hc        1 MOL      0.037054
    146 H65         5.2260    3.2600   -2.9280 h1        1 MOL      0.054636
    147 H66         6.8590    2.5390   -2.8680 h1        1 MOL      0.054636
    148 N13         4.0500    4.2120    0.6050 n         1 MOL     -0.218616
    149 C50         2.8410    4.4580    1.4430 c3        1 MOL     -0.240704
    150 C51         3.1400    4.7330    2.9750 c         1 MOL      0.534342
    151 O21         2.2370    5.1220    3.6220 o         1 MOL     -0.518057
    152 C52         1.9520    3.2570    1.1850 c3        1 MOL      0.131973
    153 C53         2.5980    1.8950    1.5830 c3        1 MOL      0.105294
    154 C54         1.7200    0.7360    1.2170 c         1 MOL      0.667761
    155 O22         2.1850   -0.2480    0.5970 o         1 MOL     -0.744312
    156 O23         0.5320    0.6550    1.5830 o         1 MOL     -0.744312
    157 H67         4.1610    3.2460    0.3360 hn        1 MOL      0.137751
    158 H68         2.2840    5.2960    1.0210 h1        1 MOL      0.156403
    159 H69         1.5710    3.2120    0.1620 hc        1 MOL     -0.003753
    160 H70         1.0380    3.4470    1.7450 hc        1 MOL     -0.003753
    161 H71         2.8160    1.9480    2.6550 hc        1 MOL     -0.048102
    162 H72         3.5610    1.7380    1.0970 hc        1 MOL     -0.048102
    163 N14         4.3490    4.5860    3.5090 n         1 MOL     -0.184100
    164 C55         4.6200    4.8140    4.8820 c3        1 MOL     -0.121671
    165 H73         5.6610    5.1150    5.0010 h1        1 MOL      0.061087
    166 H74         3.9690    5.6040    5.2550 h1        1 MOL      0.061087
    167 H75         4.4400    3.8990    5.4450 h1        1 MOL      0.061087
    168 H76         5.0840    4.2710    2.8850 hn        1 MOL      0.220371
    169 Ca1        -0.2610   -1.0530   -0.2830 Ca        1 MOL      1.691607
    170 O24         0.8280    0.7410   -1.9860 oh        1 MOL     -0.877138
    171 H77         1.6480    1.1270   -2.2930 ho        1 MOL      0.428580
    172 H78         0.1500    1.1990   -2.4740 ho        1 MOL      0.428580
    173 O25        -2.4250   -1.4550    1.2520 oh        1 MOL     -0.877138
    174 H79        -2.4730   -0.7600    1.9120 ho        1 MOL      0.428580
    175 H80        -3.2800   -1.4170    0.8130 ho        1 MOL      0.428580
@<TRIPOS>BOND
     1    1    2 1   
     2    1    4 1   
     3    1    5 1   
     4    1    6 1   
     5    2    3 2   
     6    2    7 1   
     7    7    8 1   
     8    7   15 1   
     9    8    9 1   
    10    8   11 1   
    11    8   16 1   
    12    9   10 2   
    13    9   19 1   
    14   11   12 1   
    15   11   17 1   
    16   11   18 1   
    17   12   13 1   
    18   12   14 1   
    19   19   20 1   
    20   19   24 1   
    21   20   21 1   
    22   20   23 1   
    23   20   25 1   
    24   21   22 2   
    25   21   29 1   
    26   23   26 1   
    27   23   27 1   
    28   23   28 1   
    29   29   30 1   
    30   29   37 1   
    31   30   31 1   
    32   30   33 1   
    33   30   38 1   
    34   31   32 2   
    35   31   41 1   
    36   33   34 1   
    37   33   39 1   
    38   33   40 1   
    39   34   35 1   
    40   34   36 1   
    41   41   42 1   
    42   41   45 1   
    43   42   43 1   
    44   42   46 1   
    45   42   47 1   
    46   43   44 2   
    47   43   48 1   
    48   48   49 1   
    49   48   56 1   
    50   49   50 1   
    51   49   52 1   
    52   49   57 1   
    53   50   51 2   
    54   50   62 1   
    55   52   53 1   
    56   52   58 1   
    57   52   59 1   
    58   53   54 1   
    59   53   55 2   
    60   54   60 1   
    61   54   61 1   
    62   62   63 1   
    63   62   66 1   
    64   63   64 1   
    65   63   67 1   
    66   63   68 1   
    67   64   65 2   
    68   64   69 1   
    69   69   70 1   
    70   69   76 1   
    71   70   71 1   
    72   70   73 1   
    73   70   77 1   
    74   71   72 2   
    75   71   83 1   
    76   73   74 1   
    77   73   75 1   
    78   73   78 1   
    79   74   80 1   
    80   74   81 1   
    81   74   82 1   
    82   75   79 1   
    83   83   84 1   
    84   83   91 1   
    85   84   85 1   
    86   84   87 1   
    87   84   92 1   
    88   85   86 2   
    89   85  102 1   
    90   87   88 1   
    91   87   89 1   
    92   87   93 1   
    93   88   90 1   
    94   88   94 1   
    95   88   95 1   
    96   89   96 1   
    97   89   97 1   
    98   89   98 1   
    99   90   99 1   
   100   90  100 1   
   101   90  101 1   
   102  102  103 1   
   103  102  110 1   
   104  103  104 1   
   105  103  106 1   
   106  103  111 1   
   107  104  105 2   
   108  104  114 1   
   109  106  107 1   
   110  106  112 1   
   111  106  113 1   
   112  107  108 1   
   113  107  109 1   
   114  114  115 1   
   115  114  125 1   
   116  115  116 1   
   117  115  118 1   
   118  115  126 1   
   119  116  117 2   
   120  116  134 1   
   121  118  119 1   
   122  118  127 1   
   123  118  128 1   
   124  119  120 ar  
   125  119  121 ar  
   126  120  122 ar  
   127  120  129 1   
   128  121  123 ar  
   129  121  130 1   
   130  122  124 ar  
   131  122  131 1   
   132  123  124 ar  
   133  123  132 1   
   134  124  133 1   
   135  134  135 1   
   136  134  140 1   
   137  135  136 1   
   138  135  138 1   
   139  135  141 1   
   140  136  137 2   
   141  136  148 1   
   142  138  139 1   
   143  138  142 1   
   144  138  143 1   
   145  139  140 1   
   146  139  144 1   
   147  139  145 1   
   148  140  146 1   
   149  140  147 1   
   150  148  149 1   
   151  148  157 1   
   152  149  150 1   
   153  149  152 1   
   154  149  158 1   
   155  150  151 2   
   156  150  163 1   
   157  152  153 1   
   158  152  159 1   
   159  152  160 1   
   160  153  154 1   
   161  153  161 1   
   162  153  162 1   
   163  154  155 1   
   164  154  156 1   
   165  163  164 1   
   166  163  168 1   
   167  164  165 1   
   168  164  166 1   
   169  164  167 1   
   170  170  171 1   
   171  170  172 1   
   172  173  174 1   
   173  173  175 1   
@<TRIPOS>SUBSTRUCTURE
     1 MOL         1 TEMP              0 ****  ****    0 ROOT
