@<TRIPOS>MOLECULE
MOL
  192   187     1     0     0
SMALL
resp


@<TRIPOS>ATOM
      1 C1         -5.4840   -3.0520    5.4460 c3        1 MOL     -0.347129
      2 C2         -5.0830   -2.5190    4.0930 c         1 MOL      0.825463
      3 O1         -4.8280   -3.2920    3.1560 o         1 MOL     -0.639416
      4 H1         -4.6070   -3.0960    6.0930 hc        1 MOL      0.085831
      5 H2         -6.2300   -2.3930    5.8910 hc        1 MOL      0.085831
      6 H3         -5.9030   -4.0520    5.3340 hc        1 MOL      0.085831
      7 N1         -5.0850   -1.2140    3.8580 n         1 MOL     -0.601098
      8 C3         -4.7550   -0.5470    2.6030 c3        1 MOL      0.584192
      9 C4         -3.2820   -0.4320    2.2390 c         1 MOL      0.010598
     10 O2         -2.9630    0.0940    1.1170 o         1 MOL     -0.184802
     11 C5         -5.5540    0.8480    2.4740 c3        1 MOL     -0.369081
     12 C6         -7.1080    0.9880    2.7630 c         1 MOL      0.742275
     13 O3         -7.4310    0.9910    4.0030 o         1 MOL     -0.704949
     14 O4         -7.9570    1.0740    1.8520 o         1 MOL     -0.704949
     15 H4         -5.1600   -0.5790    4.6440 hn        1 MOL      0.245231
     16 H5         -5.1710   -1.0800    1.7490 h1        1 MOL     -0.033464
     17 H6         -5.4290    1.2880    1.4920 hc        1 MOL      0.007650
     18 H7         -5.1090    1.5670    3.1710 hc        1 MOL      0.007650
     19 N2         -2.3750   -1.0210    3.0330 n         1 MOL     -0.140419
     20 C7         -0.9480   -0.8760    2.9850 c3        1 MOL     -0.039384
     21 C8         -0.2940   -2.1450    2.3770 c         1 MOL      0.450497
     22 O5         -0.5970   -3.2320    2.7490 o         1 MOL     -0.491755
     23 C9         -0.4440   -0.6750    4.4050 c3        1 MOL     -0.128812
     24 C10        -0.8980    0.6660    4.9350 c3        1 MOL      0.139977
     25 C11        -0.2510    1.0050    6.2840 c3        1 MOL     -0.253139
     26 C12        -1.0390    2.1180    7.0330 c3        1 MOL      0.276790
     27 N3         -0.2160    2.7010    8.1520 n4        1 MOL     -0.397936
     28 H8         -2.7250   -1.7130    3.6910 hn        1 MOL      0.162753
     29 H9         -0.6570   -0.1320    2.2530 h1        1 MOL      0.033468
     30 H10         0.6420   -0.6870    4.4290 hc        1 MOL      0.066310
     31 H11        -0.7250   -1.4330    5.1370 hc        1 MOL      0.066310
     32 H12        -1.9820    0.6280    5.0000 hc        1 MOL      0.020526
     33 H13        -0.5990    1.4990    4.2910 hc        1 MOL      0.020526
     34 H14         0.7520    1.3330    6.0210 hc        1 MOL      0.077557
     35 H15        -0.3080    0.1380    6.9440 hc        1 MOL      0.077557
     36 H16        -1.9890    1.7440    7.4230 hx        1 MOL      0.008843
     37 H17        -1.2910    2.8450    6.2570 hx        1 MOL      0.008843
     38 H18         0.0740    1.8620    8.6360 hn        1 MOL      0.331805
     39 H19         0.5920    3.2360    7.8590 hn        1 MOL      0.331805
     40 H20        -0.7880    3.2040    8.8130 hn        1 MOL      0.331805
     41 N4          0.6910   -2.1280    1.4280 n         1 MOL     -0.287343
     42 C13         1.3730   -0.9500    0.7550 c3        1 MOL     -0.171025
     43 C14         1.9520    0.1200    1.6920 c         1 MOL      0.627788
     44 O6          1.3200    1.1480    1.9330 o         1 MOL     -0.548954
     45 C15         0.5250   -0.3330   -0.3590 c3        1 MOL     -0.665503
     46 C16         0.2580   -1.1980   -1.6310 c         1 MOL      0.437833
     47 O7          0.7940   -2.3050   -1.7160 o         1 MOL     -0.589752
     48 O8         -0.3720   -0.6990   -2.5710 o         1 MOL     -0.589752
     49 H21         0.9200   -3.0380    1.0590 hn        1 MOL      0.216405
     50 H22         2.2320   -1.4280    0.3020 h1        1 MOL      0.095981
     51 H23         1.1260    0.5130   -0.6990 hc        1 MOL      0.299877
     52 H24        -0.4340   -0.0400    0.0670 hc        1 MOL      0.299877
     53 N5          3.1440   -0.0910    2.2870 n         1 MOL     -0.350825
     54 C17         3.9990   -1.2510    2.1620 c3        1 MOL     -0.115355
     55 C18         5.2950   -1.2090    3.0150 c         1 MOL      0.595264
     56 O9          5.4710   -0.4420    3.9750 o         1 MOL     -0.541729
     57 H25         3.4760    0.5970    2.9560 hn        1 MOL      0.261028
     58 H26         4.3300   -1.1700    1.1250 h1        1 MOL      0.094599
     59 H27         3.4310   -2.1860    2.1880 h1        1 MOL      0.094599
     60 N6          6.2110   -2.1360    2.6580 n         1 MOL     -0.579579
     61 C19         6.2000   -3.1540    1.5900 c3        1 MOL      0.217020
     62 C20         6.8300   -2.4740    0.3290 c         1 MOL      0.317726
     63 O10         7.7780   -1.6570    0.4590 o         1 MOL     -0.415515
     64 C21         6.9150   -4.4760    1.8900 c3        1 MOL     -0.077726
     65 C22         8.2610   -4.4380    2.5870 c         1 MOL      0.677728
     66 O11         8.6390   -3.3650    3.1320 o         1 MOL     -0.658696
     67 O12         8.8740   -5.5630    2.6740 o         1 MOL     -0.658696
     68 H28         7.0460   -2.2190    3.2150 hn        1 MOL      0.358699
     69 H29         5.1770   -3.3970    1.3110 h1        1 MOL     -0.055046
     70 H30         7.0050   -5.0930    1.0040 hc        1 MOL     -0.004234
     71 H31         6.2480   -5.0740    2.5170 hc        1 MOL     -0.004234
     72 N7          6.5260   -2.8960   -0.8920 n         1 MOL     -0.161865
     73 C23         7.1890   -2.3520   -2.0870 c3        1 MOL     -0.302354
     74 C24         6.7080   -0.9350   -2.4960 c         1 MOL      0.619763
     75 O13         7.5470   -0.1780   -2.8650 o         1 MOL     -0.514217
     76 H32         5.9150   -3.6890   -0.9360 hn        1 MOL      0.181585
     77 H33         6.9700   -3.0200   -2.9170 h1        1 MOL      0.135465
     78 H34         8.2680   -2.2810   -1.9160 h1        1 MOL      0.135465
     79 N8          5.3870   -0.7110   -2.3580 n         1 MOL     -0.534032
     80 C25         4.7130    0.5890   -2.6950 c3        1 MOL      0.015437
     81 C26         4.8610    1.5280   -1.4920 c         1 MOL      0.610470
     82 O14         5.1640    1.0850   -0.3890 o         1 MOL     -0.446852
     83 C27         3.1630    0.3290   -2.9610 c3        1 MOL      0.488093
     84 C28         2.9840   -0.5790   -4.2080 c3        1 MOL     -0.326591
     85 O15         2.4180    1.4840   -3.1170 oh        1 MOL     -0.682716
     86 H35         4.8060   -1.4410   -1.9640 hn        1 MOL      0.191462
     87 H36         5.2190    0.9290   -3.5930 h1        1 MOL      0.090039
     88 H37         2.7290   -0.2410   -2.1360 h1        1 MOL      0.003193
     89 H38         1.6570    1.5450   -2.5340 ho        1 MOL      0.455154
     90 H39         1.9250   -0.7110   -4.4460 hc        1 MOL      0.077133
     91 H40         3.5430   -0.1040   -5.0140 hc        1 MOL      0.077133
     92 H41         3.3610   -1.5690   -3.9450 hc        1 MOL      0.077133
     93 N9          4.5100    2.8300   -1.5970 n         1 MOL     -0.718385
     94 C29         4.8590    3.8930   -0.6680 c3        1 MOL     -0.045870
     95 C30         3.5670    4.4580   -0.0670 c         1 MOL      0.664427
     96 O16         3.5250    4.6780    1.1400 o         1 MOL     -0.583582
     97 C31         5.6940    5.0010   -1.3730 c3        1 MOL      0.212339
     98 C32         6.8260    4.5110   -2.3430 c3        1 MOL     -0.005355
     99 C33         6.2990    6.0390   -0.4500 c3        1 MOL     -0.258498
    100 C34         7.8190    3.4960   -1.8400 c3        1 MOL     -0.163541
    101 H42         4.0990    3.0620   -2.4900 hn        1 MOL      0.315137
    102 H43         5.4690    3.4620    0.1160 h1        1 MOL      0.125598
    103 H44         5.0750    5.6780   -1.9690 hc        1 MOL     -0.042589
    104 H45         7.3750    5.3840   -2.6890 hc        1 MOL     -0.002937
    105 H46         6.3630    4.2420   -3.3000 hc        1 MOL     -0.002937
    106 H47         5.4830    6.6570   -0.0540 hc        1 MOL      0.060002
    107 H48         6.8140    5.5570    0.3740 hc        1 MOL      0.060002
    108 H49         7.0290    6.6530   -0.9620 hc        1 MOL      0.060002
    109 H50         8.7310    3.4760   -2.4470 hc        1 MOL      0.060996
    110 H51         8.0710    3.7620   -0.8210 hc        1 MOL      0.060996
    111 H52         7.2830    2.5500   -1.8870 hc        1 MOL      0.060996
    112 N10         2.5200    4.6360   -0.8840 n         1 MOL     -0.414433
    113 C35         1.1830    5.0990   -0.5020 c3        1 MOL      0.136596
    114 C36         0.2000    3.9820   -0.5190 c         1 MOL      0.582244
    115 O17         0.3930    3.0140   -1.2730 o         1 MOL     -0.560518
    116 C37         0.7270    6.3570   -1.3240 c3        1 MOL      0.205741
    117 C38         0.4190    5.9950   -2.7940 c3        1 MOL     -0.514076
    118 O18         1.7670    7.3180   -1.2960 oh        1 MOL     -0.609889
    119 H53         2.6670    4.4280   -1.8590 hn        1 MOL      0.264721
    120 H54         1.1430    5.4350    0.5370 h1        1 MOL      0.058833
    121 H55        -0.0880    6.8510   -0.7880 h1        1 MOL      0.027826
    122 H56         1.4650    8.0150   -1.8750 ho        1 MOL      0.406374
    123 H57        -0.3590    5.2360   -2.8830 hc        1 MOL      0.144590
    124 H58         0.0960    6.9080   -3.2960 hc        1 MOL      0.144590
    125 H59         1.3820    5.6640   -3.1960 hc        1 MOL      0.144590
    126 N11        -0.8870    4.1880    0.1720 n         1 MOL     -0.546552
    127 C39        -2.0630    3.2210    0.3300 c3        1 MOL      0.126993
    128 C40        -2.9230    3.0130   -0.9470 c         1 MOL      0.475699
    129 O19        -3.0520    3.9230   -1.7620 o         1 MOL     -0.544144
    130 C41        -2.8660    3.4020    1.5690 c3        1 MOL      0.241497
    131 C42        -3.9940    4.3870    1.5230 c3        1 MOL     -0.052638
    132 O20        -2.0000    3.8990    2.5540 oh        1 MOL     -0.608415
    133 H60        -0.9890    4.9770    0.7950 hn        1 MOL      0.296542
    134 H61        -1.5820    2.2540    0.4730 h1        1 MOL      0.081998
    135 H62        -3.2750    2.4600    1.9470 h1        1 MOL      0.039442
    136 H63        -2.5300    4.2390    3.2840 ho        1 MOL      0.375215
    137 H64        -4.4190    4.5210    2.5220 hc        1 MOL      0.012557
    138 H65        -3.7390    5.3670    1.1110 hc        1 MOL      0.012557
    139 H66        -4.7890    4.0930    0.8360 hc        1 MOL      0.012557
    140 N12        -3.5560    1.8470   -1.0450 n         1 MOL     -0.072550
    141 C43        -4.4530    1.4770   -2.1240 c3        1 MOL     -0.073592
    142 C44        -4.4170   -0.0500   -2.2940 c         1 MOL      0.695710
    143 O21        -4.6740   -0.5910   -3.3590 o         1 MOL     -0.643012
    144 C45        -5.9030    1.9490   -1.7790 c3        1 MOL     -0.022265
    145 C46        -6.8130    2.1430   -2.9670 c3        1 MOL      0.123122
    146 C47        -8.3200    2.4320   -2.6480 c3        1 MOL     -0.068499
    147 C48        -9.3760    1.9040   -3.6770 c3        1 MOL     -0.000426
    148 N13        -9.1730    2.4840   -5.0000 n4        1 MOL     -0.287580
    149 H67        -3.2620    1.1500   -0.3800 hn        1 MOL     -0.153756
    150 H68        -4.1040    1.8140   -3.1050 h1        1 MOL      0.070012
    151 H69        -5.8310    2.9540   -1.3550 hc        1 MOL      0.042983
    152 H70        -6.4000    1.3000   -1.0590 hc        1 MOL      0.042983
    153 H71        -6.7110    1.2750   -3.6150 hc        1 MOL     -0.044312
    154 H72        -6.3790    2.9930   -3.5030 hc        1 MOL     -0.044312
    155 H73        -8.3490    3.5200   -2.5670 hc        1 MOL      0.055058
    156 H74        -8.5620    2.0000   -1.6800 hc        1 MOL      0.055058
    157 H75       -10.3350    2.2720   -3.3010 hx        1 MOL      0.096960
    158 H76        -9.3350    0.8160   -3.6770 hx        1 MOL      0.096960
    159 H77        -9.7990    1.9550   -5.5980 hn        1 MOL      0.305900
    160 H78        -9.4210    3.4610   -5.0160 hn        1 MOL      0.305900
    161 H79        -8.2180    2.3650   -5.3200 hn        1 MOL      0.305900
    162 N14        -4.1100   -0.8350   -1.2670 n         1 MOL     -0.303678
    163 C49        -4.1290   -2.3350   -1.3000 c3        1 MOL     -0.062795
    164 C50        -5.5960   -2.8270   -1.0340 c         1 MOL      0.310365
    165 O22        -6.3120   -2.3510   -0.2110 o         1 MOL     -0.387982
    166 C51        -3.1150   -2.9200   -0.3030 c3        1 MOL      0.083321
    167 C52        -2.9440   -4.4300   -0.1370 c3        1 MOL     -0.399581
    168 C53        -2.7750   -5.1810   -1.5420 c         1 MOL      0.545281
    169 O23        -3.6260   -5.9560   -1.9700 o         1 MOL     -0.665232
    170 O24        -1.7640   -5.0210   -2.1960 o         1 MOL     -0.665232
    171 H80        -3.6970   -0.4120   -0.4430 hn        1 MOL      0.226980
    172 H81        -3.7460   -2.6800   -2.2600 h1        1 MOL      0.104346
    173 H82        -3.4980   -2.5760    0.6580 hc        1 MOL      0.061665
    174 H83        -2.1700   -2.4140   -0.4680 hc        1 MOL      0.061665
    175 H84        -3.8230   -4.8620    0.3310 hc        1 MOL      0.148530
    176 H85        -2.0550   -4.6350    0.4520 hc        1 MOL      0.148530
    177 N15        -6.0510   -3.8950   -1.7490 n         1 MOL     -0.211549
    178 C54        -7.3850   -4.4210   -1.8230 c3        1 MOL     -0.123161
    179 H86        -7.5280   -4.9100   -2.7870 h1        1 MOL      0.068573
    180 H87        -7.5360   -5.1460   -1.0230 h1        1 MOL      0.068573
    181 H88        -8.1040   -3.6090   -1.7180 h1        1 MOL      0.068573
    182 H89        -5.4270   -4.2170   -2.4800 hn        1 MOL      0.290949
    183 Ca1         0.6240   -4.5510   -2.8810 Ca        1 MOL      1.587028
    184 O25        -1.1740   -5.6530   -4.6960 oh        1 MOL     -0.827753
    185 H90        -1.0410   -6.5600   -4.4300 ho        1 MOL      0.404267
    186 H91        -1.7990   -5.3080   -4.0460 ho        1 MOL      0.404267
    187 O26        -0.4030   -2.4840   -4.4460 oh        1 MOL     -0.827753
    188 H92        -0.5260   -2.0750   -5.3040 ho        1 MOL      0.404267
    189 H93        -0.4780   -1.7550   -3.8300 ho        1 MOL      0.404267
    190 O27         2.5100   -4.2270   -4.4990 oh        1 MOL     -0.827753
    191 H94         3.2080   -4.8730   -4.4890 ho        1 MOL      0.404267
    192 H95         2.5720   -3.8160   -5.3640 ho        1 MOL      0.404267
@<TRIPOS>BOND
     1    1    2 1   
     2    1    4 1   
     3    1    5 1   
     4    1    6 1   
     5    2    3 2   
     6    2    7 1   
     7    7    8 1   
     8    7   15 1   
     9    8    9 1   
    10    8   11 1   
    11    8   16 1   
    12    9   10 2   
    13    9   19 1   
    14   11   12 1   
    15   11   17 1   
    16   11   18 1   
    17   12   13 1   
    18   12   14 1   
    19   19   20 1   
    20   19   28 1   
    21   20   21 1   
    22   20   23 1   
    23   20   29 1   
    24   21   22 2   
    25   21   41 1   
    26   23   24 1   
    27   23   30 1   
    28   23   31 1   
    29   24   25 1   
    30   24   32 1   
    31   24   33 1   
    32   25   26 1   
    33   25   34 1   
    34   25   35 1   
    35   26   27 1   
    36   26   36 1   
    37   26   37 1   
    38   27   38 1   
    39   27   39 1   
    40   27   40 1   
    41   41   42 1   
    42   41   49 1   
    43   42   43 1   
    44   42   45 1   
    45   42   50 1   
    46   43   44 2   
    47   43   53 1   
    48   45   46 1   
    49   45   51 1   
    50   45   52 1   
    51   46   47 1   
    52   46   48 1   
    53   53   54 1   
    54   53   57 1   
    55   54   55 1   
    56   54   58 1   
    57   54   59 1   
    58   55   56 2   
    59   55   60 1   
    60   60   61 1   
    61   60   68 1   
    62   61   62 1   
    63   61   64 1   
    64   61   69 1   
    65   62   63 2   
    66   62   72 1   
    67   64   65 1   
    68   64   70 1   
    69   64   71 1   
    70   65   66 1   
    71   65   67 1   
    72   72   73 1   
    73   72   76 1   
    74   73   74 1   
    75   73   77 1   
    76   73   78 1   
    77   74   75 2   
    78   74   79 1   
    79   79   80 1   
    80   79   86 1   
    81   80   81 1   
    82   80   83 1   
    83   80   87 1   
    84   81   82 2   
    85   81   93 1   
    86   83   84 1   
    87   83   85 1   
    88   83   88 1   
    89   84   90 1   
    90   84   91 1   
    91   84   92 1   
    92   85   89 1   
    93   93   94 1   
    94   93  101 1   
    95   94   95 1   
    96   94   97 1   
    97   94  102 1   
    98   95   96 2   
    99   95  112 1   
   100   97   98 1   
   101   97   99 1   
   102   97  103 1   
   103   98  100 1   
   104   98  104 1   
   105   98  105 1   
   106   99  106 1   
   107   99  107 1   
   108   99  108 1   
   109  100  109 1   
   110  100  110 1   
   111  100  111 1   
   112  112  113 1   
   113  112  119 1   
   114  113  114 1   
   115  113  116 1   
   116  113  120 1   
   117  114  115 2   
   118  114  126 1   
   119  116  117 1   
   120  116  118 1   
   121  116  121 1   
   122  117  123 1   
   123  117  124 1   
   124  117  125 1   
   125  118  122 1   
   126  126  127 1   
   127  126  133 1   
   128  127  128 1   
   129  127  130 1   
   130  127  134 1   
   131  128  129 2   
   132  128  140 1   
   133  130  131 1   
   134  130  132 1   
   135  130  135 1   
   136  131  137 1   
   137  131  138 1   
   138  131  139 1   
   139  132  136 1   
   140  140  141 1   
   141  140  149 1   
   142  141  142 1   
   143  141  144 1   
   144  141  150 1   
   145  142  143 2   
   146  142  162 1   
   147  144  145 1   
   148  144  151 1   
   149  144  152 1   
   150  145  146 1   
   151  145  153 1   
   152  145  154 1   
   153  146  147 1   
   154  146  155 1   
   155  146  156 1   
   156  147  148 1   
   157  147  157 1   
   158  147  158 1   
   159  148  159 1   
   160  148  160 1   
   161  148  161 1   
   162  162  163 1   
   163  162  171 1   
   164  163  164 1   
   165  163  166 1   
   166  163  172 1   
   167  164  165 2   
   168  164  177 1   
   169  166  167 1   
   170  166  173 1   
   171  166  174 1   
   172  167  168 1   
   173  167  175 1   
   174  167  176 1   
   175  168  169 1   
   176  168  170 1   
   177  177  178 1   
   178  177  182 1   
   179  178  179 1   
   180  178  180 1   
   181  178  181 1   
   182  184  185 1   
   183  184  186 1   
   184  187  188 1   
   185  187  189 1   
   186  190  191 1   
   187  190  192 1   
@<TRIPOS>SUBSTRUCTURE
     1 MOL         1 TEMP              0 ****  ****    0 ROOT
