@<TRIPOS>MOLECULE
MOL
  185   180     1     0     0
SMALL
resp


@<TRIPOS>ATOM
      1 C1          6.3590   -1.1510    5.3190 c3        1 MOL     -0.426949
      2 C2          5.6670   -0.8010    4.0650 c         1 MOL      0.620239
      3 O1          4.4280   -0.6070    4.0080 o         1 MOL     -0.578544
      4 H1          6.5230   -2.2280    5.3540 hc        1 MOL      0.107091
      5 H2          7.3190   -0.6360    5.3610 hc        1 MOL      0.107091
      6 H3          5.7470   -0.8500    6.1690 hc        1 MOL      0.107091
      7 N1          6.5170   -0.6280    3.0640 n         1 MOL     -0.395632
      8 C3          6.0170   -0.2160    1.7010 c3        1 MOL     -0.051208
      9 C4          5.1960   -1.2820    1.0580 c         1 MOL      0.370855
     10 O2          4.0470   -0.9190    0.6670 o         1 MOL     -0.510466
     11 C5          7.1020    0.2850    0.7590 c3        1 MOL     -0.057806
     12 C6          8.1750   -0.7490    0.4200 c         1 MOL      0.644337
     13 O3          9.1170   -0.3050   -0.2240 o         1 MOL     -0.662916
     14 O4          8.2190   -1.8730    0.9080 o         1 MOL     -0.662916
     15 H4          7.4660   -0.8030    3.3580 hn        1 MOL      0.277212
     16 H5          5.3540    0.6490    1.7520 h1        1 MOL      0.116368
     17 H6          7.6140    1.1580    1.1690 hc        1 MOL      0.045590
     18 H7          6.7450    0.7600   -0.1570 hc        1 MOL      0.045590
     19 N2          5.5200   -2.5520    1.0000 n         1 MOL     -0.308064
     20 C7          4.6680   -3.6610    0.4420 c3        1 MOL      0.017659
     21 C8          4.6240   -3.6610   -1.1040 c         1 MOL      0.517351
     22 O5          4.9600   -4.6280   -1.7870 o         1 MOL     -0.547217
     23 C9          5.1640   -4.9910    0.9520 c3        1 MOL      0.000086
     24 C10         5.2320   -5.1080    2.4750 c3        1 MOL      0.156664
     25 C11         5.6760   -6.4370    2.9360 c3        1 MOL     -0.105170
     26 C12         5.5510   -6.3310    4.5460 c3        1 MOL     -0.043034
     27 N3          6.1210   -7.5610    5.1950 n4        1 MOL     -0.226486
     28 H8          6.3520   -2.7670    1.5220 hn        1 MOL      0.241185
     29 H9          3.6380   -3.5550    0.7840 h1        1 MOL      0.096326
     30 H10         6.1720   -5.1230    0.5530 hc        1 MOL      0.025142
     31 H11         4.5840   -5.7840    0.4700 hc        1 MOL      0.025142
     32 H12         4.1930   -4.9900    2.7690 hc        1 MOL     -0.033710
     33 H13         5.8380   -4.3000    2.9010 hc        1 MOL     -0.033710
     34 H14         6.6830   -6.5270    2.5340 hc        1 MOL      0.056039
     35 H15         4.9610   -7.1280    2.4930 hc        1 MOL      0.056039
     36 H16         4.4900   -6.2730    4.7890 hx        1 MOL      0.106429
     37 H17         6.1460   -5.4910    4.8860 hx        1 MOL      0.106429
     38 H18         6.0150   -7.4870    6.1970 hn        1 MOL      0.277254
     39 H19         5.6800   -8.4540    4.9880 hn        1 MOL      0.277254
     40 H20         7.0740   -7.6480    4.8970 hn        1 MOL      0.277254
     41 N4          4.0910   -2.6100   -1.6540 n         1 MOL     -0.176863
     42 C13         3.6690   -2.5630   -3.0400 c3        1 MOL     -0.036694
     43 C14         3.6860   -1.1310   -3.5980 c         1 MOL      0.371381
     44 O6          3.4950   -0.1750   -2.8220 o         1 MOL     -0.385429
     45 C15         2.2710   -3.1860   -3.3410 c3        1 MOL     -0.334370
     46 C16         1.2390   -2.6470   -2.3930 c         1 MOL      0.878692
     47 O7          0.6490   -1.6180   -2.7780 o         1 MOL     -0.798047
     48 O8          0.7950   -3.1610   -1.3650 o         1 MOL     -0.798047
     49 H21         3.6530   -1.9600   -1.0250 hn        1 MOL      0.078857
     50 H22         4.3520   -3.1370   -3.6680 h1        1 MOL      0.094020
     51 H23         2.3050   -4.2720   -3.2890 hc        1 MOL      0.100829
     52 H24         2.0080   -3.0550   -4.3990 hc        1 MOL      0.100829
     53 N5          3.8170   -1.0210   -4.9190 n         1 MOL     -0.295719
     54 C17         3.8840    0.1610   -5.7910 c3        1 MOL     -0.173070
     55 C18         5.3050    0.8260   -5.6110 c         1 MOL      0.572277
     56 O9          6.1960    0.3770   -6.2750 o         1 MOL     -0.542721
     57 H25         3.7910   -1.9090   -5.4060 hn        1 MOL      0.290766
     58 H26         2.9910    0.7530   -5.6530 h1        1 MOL      0.114793
     59 H27         3.9040   -0.2190   -6.8150 h1        1 MOL      0.114793
     60 N6          5.6160    1.8560   -4.8160 n         1 MOL     -0.435269
     61 C19         4.7910    2.6380   -3.8740 c3        1 MOL      0.228395
     62 C20         5.5610    3.0330   -2.5450 c         1 MOL      0.494824
     63 O10         6.7070    3.4890   -2.6550 o         1 MOL     -0.540986
     64 C21         4.2030    3.8560   -4.6420 c3        1 MOL     -0.325968
     65 C22         3.1150    4.6900   -3.8800 c         1 MOL      0.682503
     66 N7          3.3810    5.9410   -3.5890 n         1 MOL     -0.811668
     67 O11         2.1190    4.1130   -3.4490 o         1 MOL     -0.582772
     68 H28         6.5590    2.1960   -4.9250 hn        1 MOL      0.286487
     69 H29         4.0490    1.9160   -3.5500 h1        1 MOL      0.010522
     70 H30         3.7180    3.4570   -5.5330 hc        1 MOL      0.078910
     71 H31         4.9730    4.5470   -5.0050 hc        1 MOL      0.078910
     72 H32         4.2830    6.3160   -3.8400 hn        1 MOL      0.381759
     73 H33         2.6350    6.5430   -3.2800 hn        1 MOL      0.381759
     74 N8          4.9550    3.0600   -1.3430 n         1 MOL     -0.366480
     75 C23         3.7570    2.3600   -0.8840 c3        1 MOL      0.061147
     76 C24         2.9910    3.0530    0.2450 c         1 MOL      0.549316
     77 O12         3.6470    3.8020    1.0270 o         1 MOL     -0.535877
     78 H34         5.4930    3.5630   -0.6550 hn        1 MOL      0.268283
     79 H35         3.9850    1.3540   -0.5280 h1        1 MOL      0.010654
     80 H36         3.1370    2.0620   -1.7360 h1        1 MOL      0.010654
     81 N9          1.6440    2.9290    0.2940 n         1 MOL     -0.586550
     82 C25         0.7630    3.2660    1.3600 c3        1 MOL      0.262995
     83 C26        -0.3310    2.1980    1.5240 c         1 MOL      0.627139
     84 O13        -0.4870    1.2650    0.7620 o         1 MOL     -0.610734
     85 C27         0.1300    4.7390    1.0530 c3        1 MOL     -0.155332
     86 C28        -0.2390    5.5310    2.2620 ca        1 MOL      0.009894
     87 C29        -0.8060    6.7630    2.0520 ca        1 MOL     -0.129685
     88 C30         0.0410    5.1230    3.6000 ca        1 MOL     -0.129685
     89 C31        -1.0780    7.6880    3.1080 ca        1 MOL     -0.253172
     90 C32        -0.1950    6.0080    4.6520 ca        1 MOL     -0.253172
     91 C33        -0.6310    7.2940    4.3980 ca        1 MOL      0.320336
     92 O14        -0.8230    8.1420    5.4390 oh        1 MOL     -0.480901
     93 H37         1.2910    2.3240   -0.4280 hn        1 MOL      0.311435
     94 H38         1.3100    3.2300    2.3050 h1        1 MOL      0.030011
     95 H39        -0.7520    4.5510    0.4450 hc        1 MOL      0.089517
     96 H40         0.7500    5.3470    0.3980 hc        1 MOL      0.089517
     97 H41        -1.0140    7.0210    1.0240 ha        1 MOL      0.115672
     98 H42         0.4110    4.1280    3.7990 ha        1 MOL      0.115672
     99 H43        -1.5440    8.6540    2.9790 ha        1 MOL      0.150617
    100 H44         0.2080    5.8260    5.6320 ha        1 MOL      0.150617
    101 H45        -0.9140    9.0190    5.0660 ho        1 MOL      0.358022
    102 N10        -1.1680    2.3200    2.5040 n         1 MOL     -0.608642
    103 C34        -2.4140    1.5090    2.7480 c3        1 MOL      0.091529
    104 C35        -3.5570    2.0680    1.8660 c         1 MOL      0.466433
    105 O15        -3.7110    3.2790    1.7200 o         1 MOL     -0.584918
    106 C36        -2.7440    1.4960    4.2850 c3        1 MOL      0.040655
    107 C37        -4.0340    0.7820    4.7520 c3        1 MOL     -0.370588
    108 C38        -1.6090    1.0220    5.1950 c3        1 MOL     -0.020793
    109 C39        -3.9440   -0.7450    4.8790 c3        1 MOL     -0.001858
    110 H46        -1.0610    3.1780    3.0310 hn        1 MOL      0.328513
    111 H47        -2.2800    0.4570    2.4680 h1        1 MOL      0.119057
    112 H48        -2.8940    2.5540    4.5370 hc        1 MOL      0.003395
    113 H49        -4.8510    1.0530    4.0890 hc        1 MOL      0.127809
    114 H50        -4.3170    1.1580    5.7350 hc        1 MOL      0.127809
    115 H51        -1.1930    0.1000    4.7830 hc        1 MOL      0.015246
    116 H52        -0.7870    1.7190    5.0950 hc        1 MOL      0.015246
    117 H53        -1.7630    0.8730    6.2600 hc        1 MOL      0.015246
    118 H54        -4.8810   -1.1790    4.5470 hc        1 MOL      0.016947
    119 H55        -3.2020   -1.1630    4.2080 hc        1 MOL      0.016947
    120 H56        -3.7840   -1.1320    5.8840 hc        1 MOL      0.016947
    121 N11        -4.2840    1.2220    1.2160 n         1 MOL     -0.066942
    122 C40        -5.5560    1.5960    0.5710 c3        1 MOL     -0.026571
    123 C41        -5.6500    0.9950   -0.8040 c         1 MOL      0.359353
    124 O16        -5.3810   -0.1890   -0.9630 o         1 MOL     -0.274781
    125 C42        -6.6580    1.0730    1.4350 c3        1 MOL      0.194787
    126 O17        -7.9600    1.5820    1.1900 oh        1 MOL     -0.640012
    127 H57        -4.0840    0.2350    1.2130 hn        1 MOL      0.083225
    128 H58        -5.5280    2.6760    0.4630 h1        1 MOL      0.063863
    129 H59        -6.4460    1.3040    2.4850 h1        1 MOL     -0.007245
    130 H60        -6.7650    0.0010    1.3000 h1        1 MOL     -0.007245
    131 H61        -8.1090    2.3960    1.6730 ho        1 MOL      0.411710
    132 N12        -5.9330    1.7460   -1.8280 n         1 MOL     -0.470088
    133 C43        -6.1670    1.3760   -3.1890 c3        1 MOL      0.247304
    134 C44        -7.0640    0.1510   -3.3290 c         1 MOL      0.383756
    135 O18        -6.6950   -0.8720   -3.9110 o         1 MOL     -0.454288
    136 C45        -4.7780    1.1770   -3.8330 c3        1 MOL     -0.240388
    137 H62        -5.9160    2.7150   -1.5390 hn        1 MOL      0.298492
    138 H63        -6.6660    2.1780   -3.7310 h1        1 MOL      0.042387
    139 H64        -4.1820    2.0800   -3.7840 hc        1 MOL      0.057144
    140 H65        -4.3080    0.3080   -3.3510 hc        1 MOL      0.057144
    141 H66        -4.8730    0.8280   -4.8590 hc        1 MOL      0.057144
    142 N13        -8.2370    0.1870   -2.6770 n         1 MOL     -0.545363
    143 C46        -9.2220   -0.9230   -2.4630 c3        1 MOL      0.540675
    144 C47        -8.6990   -2.2060   -1.7740 c         1 MOL      0.085176
    145 O19        -9.3090   -3.2420   -1.8710 o         1 MOL     -0.447949
    146 C48       -10.1050   -1.1510   -3.6860 c3        1 MOL     -0.407374
    147 H67        -8.5490    1.0870   -2.3400 hn        1 MOL      0.271752
    148 H68        -9.9430   -0.4680   -1.7750 h1        1 MOL     -0.026157
    149 H69       -10.9520   -1.7990   -3.4560 hc        1 MOL      0.111146
    150 H70       -10.4590   -0.1900   -4.0340 hc        1 MOL      0.111146
    151 H71        -9.4820   -1.7090   -4.3810 hc        1 MOL      0.111146
    152 N14        -7.4520   -2.2310   -1.1990 n         1 MOL      0.028224
    153 C49        -6.8790   -3.4620   -0.6310 c3        1 MOL     -0.037631
    154 C50        -7.4180   -3.9340    0.7110 c         1 MOL      0.328666
    155 O20        -7.2320   -5.1430    0.9740 o         1 MOL     -0.509888
    156 C51        -5.3920   -3.4300   -0.4320 c3        1 MOL     -0.080193
    157 C52        -4.8230   -2.7380    0.8130 c3        1 MOL      0.124844
    158 C53        -3.3780   -2.3430    0.7190 c         1 MOL      0.694310
    159 O21        -2.9530   -1.2920    1.1930 o         1 MOL     -0.743490
    160 O22        -2.5160   -3.1100    0.2090 o         1 MOL     -0.743490
    161 H72        -6.9090   -1.3870   -1.2870 hn        1 MOL      0.085065
    162 H73        -7.0480   -4.2930   -1.3090 h1        1 MOL      0.133740
    163 H74        -5.0280   -2.8390   -1.2770 hc        1 MOL      0.012358
    164 H75        -4.9110   -4.4070   -0.4600 hc        1 MOL      0.012358
    165 H76        -4.9740   -3.3020    1.7280 hc        1 MOL     -0.029952
    166 H77        -5.3650   -1.8010    0.9140 hc        1 MOL     -0.029952
    167 N15        -8.1600   -3.1290    1.4440 n         1 MOL     -0.125254
    168 C54        -8.7390   -3.5890    2.6960 c3        1 MOL     -0.111553
    169 H78        -8.7940   -4.6770    2.6930 h1        1 MOL      0.069873
    170 H79        -8.1150   -3.2600    3.5280 h1        1 MOL      0.069873
    171 H80        -9.7410   -3.1750    2.8080 h1        1 MOL      0.069873
    172 H81        -8.2440   -2.1790    1.1120 hn        1 MOL      0.176800
    173 Ca1        -0.7890   -1.2970   -0.3780 Ca        1 MOL      1.801967
    174 O23         0.5920   -1.3170    1.8860 oh        1 MOL     -0.859995
    175 H82         1.2500   -1.8660    2.2950 ho        1 MOL      0.423503
    176 H83         0.7010   -0.4620    2.3020 ho        1 MOL      0.423503
    177 O24         1.6100   -0.0810   -0.5690 oh        1 MOL     -0.859995
    178 H84         1.8490    0.0190   -1.4810 ho        1 MOL      0.423503
    179 H85         2.4180   -0.3550   -0.1410 ho        1 MOL      0.423503
    180 O25        -2.1920   -2.0720   -2.5640 oh        1 MOL     -0.859995
    181 H86        -3.1080   -2.0870   -2.8350 ho        1 MOL      0.423503
    182 H87        -1.7160   -2.4440   -3.3070 ho        1 MOL      0.423503
    183 O26        -1.9220    0.7550   -1.7360 oh        1 MOL     -0.859995
    184 H88        -2.6230    1.3660   -1.9450 ho        1 MOL      0.423503
    185 H89        -1.3220    0.8290   -2.4810 ho        1 MOL      0.423503
@<TRIPOS>BOND
     1    1    2 1   
     2    1    4 1   
     3    1    5 1   
     4    1    6 1   
     5    2    3 2   
     6    2    7 1   
     7    7    8 1   
     8    7   15 1   
     9    8    9 1   
    10    8   11 1   
    11    8   16 1   
    12    9   10 2   
    13    9   19 1   
    14   11   12 1   
    15   11   17 1   
    16   11   18 1   
    17   12   13 1   
    18   12   14 1   
    19   19   20 1   
    20   19   28 1   
    21   20   21 1   
    22   20   23 1   
    23   20   29 1   
    24   21   22 2   
    25   21   41 1   
    26   23   24 1   
    27   23   30 1   
    28   23   31 1   
    29   24   25 1   
    30   24   32 1   
    31   24   33 1   
    32   25   26 1   
    33   25   34 1   
    34   25   35 1   
    35   26   27 1   
    36   26   36 1   
    37   26   37 1   
    38   27   38 1   
    39   27   39 1   
    40   27   40 1   
    41   41   42 1   
    42   41   49 1   
    43   42   43 1   
    44   42   45 1   
    45   42   50 1   
    46   43   44 2   
    47   43   53 1   
    48   45   46 1   
    49   45   51 1   
    50   45   52 1   
    51   46   47 1   
    52   46   48 1   
    53   53   54 1   
    54   53   57 1   
    55   54   55 1   
    56   54   58 1   
    57   54   59 1   
    58   55   56 2   
    59   55   60 1   
    60   60   61 1   
    61   60   68 1   
    62   61   62 1   
    63   61   64 1   
    64   61   69 1   
    65   62   63 2   
    66   62   74 1   
    67   64   65 1   
    68   64   70 1   
    69   64   71 1   
    70   65   66 1   
    71   65   67 2   
    72   66   72 1   
    73   66   73 1   
    74   74   75 1   
    75   74   78 1   
    76   75   76 1   
    77   75   79 1   
    78   75   80 1   
    79   76   77 2   
    80   76   81 1   
    81   81   82 1   
    82   81   93 1   
    83   82   83 1   
    84   82   85 1   
    85   82   94 1   
    86   83   84 2   
    87   83  102 1   
    88   85   86 1   
    89   85   95 1   
    90   85   96 1   
    91   86   87 ar  
    92   86   88 ar  
    93   87   89 ar  
    94   87   97 1   
    95   88   90 ar  
    96   88   98 1   
    97   89   91 ar  
    98   89   99 1   
    99   90   91 ar  
   100   90  100 1   
   101   91   92 1   
   102   92  101 1   
   103  102  103 1   
   104  102  110 1   
   105  103  104 1   
   106  103  106 1   
   107  103  111 1   
   108  104  105 2   
   109  104  121 1   
   110  106  107 1   
   111  106  108 1   
   112  106  112 1   
   113  107  109 1   
   114  107  113 1   
   115  107  114 1   
   116  108  115 1   
   117  108  116 1   
   118  108  117 1   
   119  109  118 1   
   120  109  119 1   
   121  109  120 1   
   122  121  122 1   
   123  121  127 1   
   124  122  123 1   
   125  122  125 1   
   126  122  128 1   
   127  123  124 2   
   128  123  132 1   
   129  125  126 1   
   130  125  129 1   
   131  125  130 1   
   132  126  131 1   
   133  132  133 1   
   134  132  137 1   
   135  133  134 1   
   136  133  136 1   
   137  133  138 1   
   138  134  135 2   
   139  134  142 1   
   140  136  139 1   
   141  136  140 1   
   142  136  141 1   
   143  142  143 1   
   144  142  147 1   
   145  143  144 1   
   146  143  146 1   
   147  143  148 1   
   148  144  145 2   
   149  144  152 1   
   150  146  149 1   
   151  146  150 1   
   152  146  151 1   
   153  152  153 1   
   154  152  161 1   
   155  153  154 1   
   156  153  156 1   
   157  153  162 1   
   158  154  155 2   
   159  154  167 1   
   160  156  157 1   
   161  156  163 1   
   162  156  164 1   
   163  157  158 1   
   164  157  165 1   
   165  157  166 1   
   166  158  159 1   
   167  158  160 1   
   168  167  168 1   
   169  167  172 1   
   170  168  169 1   
   171  168  170 1   
   172  168  171 1   
   173  174  175 1   
   174  174  176 1   
   175  177  178 1   
   176  177  179 1   
   177  180  181 1   
   178  180  182 1   
   179  183  184 1   
   180  183  185 1   
@<TRIPOS>SUBSTRUCTURE
     1 MOL         1 TEMP              0 ****  ****    0 ROOT
