@<TRIPOS>MOLECULE
MOL
  182   178     1     0     0
SMALL
resp


@<TRIPOS>ATOM
      1 C1          1.1780   -5.9390    5.3870 c3        1 MOL     -0.370040
      2 C2          0.9710   -5.3380    3.9660 c         1 MOL      0.704561
      3 O1          0.3490   -5.9600    3.0990 o         1 MOL     -0.596218
      4 H1          1.9060   -6.7490    5.3360 hc        1 MOL      0.100906
      5 H2          1.5430   -5.1640    6.0600 hc        1 MOL      0.100906
      6 H3          0.2290   -6.3280    5.7590 hc        1 MOL      0.100906
      7 N1          1.5860   -4.2280    3.7700 n         1 MOL     -0.518210
      8 C3          1.8970   -3.6620    2.4070 c3        1 MOL     -0.366093
      9 C4          2.5020   -4.7270    1.4220 c         1 MOL      0.828490
     10 O2          3.4020   -5.4580    1.7920 o         1 MOL     -0.551695
     11 C5          2.9780   -2.5500    2.6670 c3        1 MOL      0.173867
     12 C6          3.1330   -1.5900    1.4710 c         1 MOL      0.446528
     13 O3          3.5500   -0.4260    1.5870 o         1 MOL     -0.651565
     14 O4          2.8890   -1.9500    0.2630 o         1 MOL     -0.651565
     15 H4          2.0750   -3.8230    4.5480 hn        1 MOL      0.340274
     16 H5          1.0780   -3.1070    1.9450 h1        1 MOL      0.130755
     17 H6          3.9800   -2.9340    2.8800 hc        1 MOL      0.012900
     18 H7          2.6810   -1.8890    3.4880 hc        1 MOL      0.012900
     19 N2          2.0440   -4.7350    0.1820 n         1 MOL     -0.603453
     20 C7          2.4730   -5.6770   -0.9490 c3        1 MOL      0.014765
     21 C8          3.6920   -5.2280   -1.6650 c         1 MOL      0.522799
     22 O5          4.3580   -6.1370   -2.2330 o         1 MOL     -0.558623
     23 C9          1.3410   -5.8400   -2.0230 c3        1 MOL     -0.196933
     24 C10         0.1130   -6.7030   -1.5530 c3        1 MOL      0.079225
     25 C11        -1.1480   -6.7400   -2.4430 c3        1 MOL     -0.056040
     26 C12        -2.1050   -7.8460   -2.1790 c3        1 MOL     -0.055371
     27 N3         -2.7260   -7.7340   -0.8810 n4        1 MOL     -0.280881
     28 H8          1.3640   -4.0180   -0.0070 hn        1 MOL      0.300417
     29 H9          2.6390   -6.6180   -0.4270 h1        1 MOL      0.129349
     30 H10         1.7950   -6.4380   -2.8120 hc        1 MOL      0.088681
     31 H11         1.1350   -4.8740   -2.4720 hc        1 MOL      0.088681
     32 H12        -0.1550   -6.4010   -0.5390 hc        1 MOL      0.021153
     33 H13         0.5880   -7.6670   -1.4270 hc        1 MOL      0.021153
     34 H14        -0.7980   -6.8430   -3.4660 hc        1 MOL      0.041930
     35 H15        -1.6350   -5.7980   -2.2090 hc        1 MOL      0.041930
     36 H16        -1.5630   -8.7910   -2.2190 hx        1 MOL      0.105800
     37 H17        -2.7920   -7.7930   -3.0210 hx        1 MOL      0.105800
     38 H18        -3.3210   -8.5360   -0.7430 hn        1 MOL      0.252410
     39 H19        -2.0550   -7.7340   -0.1190 hn        1 MOL      0.252410
     40 H20        -3.3080   -6.9000   -0.8890 hn        1 MOL      0.252410
     41 N4          4.0570   -3.9350   -1.7200 n         1 MOL     -0.343659
     42 C13         5.3240   -3.4960   -2.3600 c3        1 MOL      0.063619
     43 C14         6.2420   -2.7550   -1.3180 c         1 MOL      0.336072
     44 O6          7.4750   -2.8190   -1.3900 o         1 MOL     -0.545367
     45 C15         5.1370   -2.6240   -3.6120 c3        1 MOL     -0.419242
     46 C16         4.1970   -1.3840   -3.2700 c         1 MOL      0.817287
     47 O7          4.2320   -0.7670   -2.1860 o         1 MOL     -0.730621
     48 O8          3.4810   -0.9960   -4.2170 o         1 MOL     -0.730621
     49 H21         3.2670   -3.3580   -1.4840 hn        1 MOL      0.259538
     50 H22         5.8750   -4.3650   -2.7100 h1        1 MOL      0.131761
     51 H23         4.7720   -3.2070   -4.4640 hc        1 MOL      0.134403
     52 H24         6.0910   -2.1650   -3.8640 hc        1 MOL      0.134403
     53 N5          5.6980   -2.3140   -0.2180 n         1 MOL      0.063305
     54 C17         6.5110   -1.7830    0.9240 c3        1 MOL     -0.271144
     55 C18         7.1070   -0.4140    0.7010 c         1 MOL      0.516450
     56 O9          8.0090   -0.0210    1.4660 o         1 MOL     -0.570454
     57 H25         4.6990   -2.4420   -0.1090 hn        1 MOL      0.012757
     58 H26         7.3600   -2.4210    1.1570 h1        1 MOL      0.132244
     59 H27         5.8800   -1.7420    1.8130 h1        1 MOL      0.132244
     60 N6          6.6640    0.3580   -0.2540 n         1 MOL     -0.120755
     61 C19         6.9350    1.6970   -0.6380 c3        1 MOL      0.051936
     62 C20         5.6530    2.5060   -0.8390 c         1 MOL      0.666060
     63 O10         4.5210    1.9770   -0.7220 o         1 MOL     -0.674090
     64 C21         7.6940    1.4200   -1.9190 c3        1 MOL     -0.182455
     65 C22         8.5380    2.6090   -2.3160 c         1 MOL      0.710526
     66 N7          9.0190    2.5070   -3.5440 n         1 MOL     -0.873557
     67 O11         8.7970    3.4850   -1.5380 o         1 MOL     -0.556497
     68 H28         5.9370   -0.0430   -0.8340 hn        1 MOL      0.148410
     69 H29         7.5220    2.1140    0.1890 h1        1 MOL      0.048338
     70 H30         6.8500    1.2710   -2.5990 hc        1 MOL      0.056082
     71 H31         8.3310    0.5270   -1.9220 hc        1 MOL      0.056082
     72 H32         8.8290    1.6600   -4.0540 hn        1 MOL      0.388079
     73 H33         9.6770    3.1850   -3.9080 hn        1 MOL      0.388079
     74 N8          5.8050    3.8370   -1.0200 n         1 MOL     -0.548075
     75 C23         4.6800    4.7690   -1.0070 c3        1 MOL     -0.021294
     76 C24         3.9540    4.9420    0.3420 c         1 MOL      0.576680
     77 O12         4.4780    4.6010    1.4110 o         1 MOL     -0.484812
     78 H34         6.7170    4.1840   -0.7800 hn        1 MOL      0.341987
     79 H35         3.8690    4.4120   -1.6500 h1        1 MOL      0.076775
     80 H36         4.9940    5.7550   -1.3410 h1        1 MOL      0.076775
     81 N9          2.6610    5.2430    0.2100 n         1 MOL     -0.636497
     82 C25         1.5700    4.8830    1.1830 c3        1 MOL      0.272563
     83 C26         1.4740    3.4390    1.5500 c         1 MOL      0.409850
     84 O13         2.2280    2.6070    1.0460 o         1 MOL     -0.385953
     85 C27         0.2790    5.2840    0.4650 c3        1 MOL     -0.189002
     86 C28         0.0530    6.7890    0.2410 ca        1 MOL      0.008299
     87 C29         0.0870    7.6130    1.3880 ca        1 MOL     -0.123300
     88 C30         0.0550    7.2360   -1.1250 ca        1 MOL     -0.123300
     89 C31        -0.0330    8.9840    1.1260 ca        1 MOL     -0.257807
     90 C32         0.0500    8.6110   -1.3530 ca        1 MOL     -0.257807
     91 C33        -0.0760    9.4760   -0.2160 ca        1 MOL      0.337419
     92 O14        -0.1100   10.8290   -0.4480 oh        1 MOL     -0.498103
     93 H37         2.3130    5.3820   -0.7300 hn        1 MOL      0.321142
     94 H38         1.5380    5.3090    2.1900 h1        1 MOL      0.033138
     95 H39        -0.5460    4.9650    1.1030 hc        1 MOL      0.048677
     96 H40         0.1630    4.6890   -0.4400 hc        1 MOL      0.048677
     97 H41         0.1230    7.3240    2.4270 ha        1 MOL      0.134588
     98 H42         0.0260    6.4850   -1.8960 ha        1 MOL      0.134588
     99 H43         0.0130    9.6790    1.9550 ha        1 MOL      0.161488
    100 H44         0.0710    8.9790   -2.3720 ha        1 MOL      0.161488
    101 H45        -0.0910   11.4490    0.2820 ho        1 MOL      0.381809
    102 N10         0.5690    3.0510    2.4430 n         1 MOL     -0.404320
    103 C34         0.2090    1.7760    3.0160 c3        1 MOL      0.030450
    104 C35        -0.2390    0.7350    2.0290 c         1 MOL      0.098973
    105 O15         0.4900    0.3450    1.0670 o         1 MOL     -0.457938
    106 C36         1.2890    1.3000    3.9710 c3        1 MOL      0.279706
    107 C37         0.9920   -0.1060    4.6340 c3        1 MOL     -0.129614
    108 C38         1.5290    2.3180    5.0320 c3        1 MOL     -0.379050
    109 C39        -0.1720   -0.0500    5.6480 c3        1 MOL      0.069433
    110 H46        -0.0030    3.8390    2.7050 hn        1 MOL      0.259744
    111 H47        -0.6640    1.9150    3.6480 h1        1 MOL      0.070143
    112 H48         2.2790    1.2290    3.5090 hc        1 MOL      0.046374
    113 H49         1.8240   -0.5820    5.1430 hc        1 MOL      0.046393
    114 H50         0.7530   -0.7230    3.7710 hc        1 MOL      0.046393
    115 H51         0.6060    2.8200    5.3320 hc        1 MOL      0.091624
    116 H52         2.0400    1.8240    5.8660 hc        1 MOL      0.091624
    117 H53         2.1480    3.1310    4.6570 hc        1 MOL      0.091624
    118 H54        -0.1020    0.7170    6.4210 hc        1 MOL     -0.030588
    119 H55        -1.0780    0.1730    5.0860 hc        1 MOL     -0.030588
    120 H56        -0.3730   -1.0650    6.0170 hc        1 MOL     -0.030588
    121 N11        -1.4270    0.1850    2.2860 n         1 MOL     -0.015424
    122 C40        -1.9650   -1.0620    1.7840 c3        1 MOL     -0.172139
    123 C41        -3.2670   -0.8930    0.9160 c         1 MOL      0.638371
    124 O16        -3.8080   -1.9160    0.5050 o         1 MOL     -0.540839
    125 C42        -1.9960   -2.1810    2.8440 c3        1 MOL      0.322908
    126 O17        -2.5840   -1.6950    4.0230 oh        1 MOL     -0.635009
    127 H57        -1.9860    0.7350    2.9170 hn        1 MOL      0.222100
    128 H58        -1.2130   -1.4980    1.1210 h1        1 MOL      0.054525
    129 H59        -1.0150   -2.6220    3.0280 h1        1 MOL     -0.009163
    130 H60        -2.6740   -2.9770    2.5510 h1        1 MOL     -0.009163
    131 H61        -2.6370   -2.4060    4.6580 ho        1 MOL      0.418955
    132 N12        -3.7850    0.3250    0.6850 n         1 MOL     -0.534490
    133 C43        -5.0110    0.4560   -0.0860 c3        1 MOL      0.120793
    134 C44        -4.7380    0.3180   -1.5950 c         1 MOL      0.556159
    135 O18        -3.5890    0.4080   -2.0150 o         1 MOL     -0.524917
    136 C45        -5.5920    1.8990    0.1650 c3        1 MOL     -0.031740
    137 H62        -3.3230    1.1270    1.1000 hn        1 MOL      0.276921
    138 H63        -5.7760   -0.2610    0.2190 h1        1 MOL      0.093362
    139 H64        -4.8290    2.5090   -0.3260 hc        1 MOL      0.010018
    140 H65        -6.5910    2.1200   -0.2050 hc        1 MOL      0.010018
    141 H66        -5.5380    2.1590    1.2210 hc        1 MOL      0.010018
    142 N13        -5.6990    0.0460   -2.5480 n         1 MOL     -0.640047
    143 C46        -7.1640   -0.2610   -2.3740 c3        1 MOL      0.448666
    144 C47        -8.1530    0.8340   -2.8150 c         1 MOL      0.462059
    145 O19        -7.7870    1.6740   -3.6100 o         1 MOL     -0.547296
    146 C48        -7.4120   -1.3900   -3.3370 c3        1 MOL     -0.473354
    147 H67        -5.3850    0.0640   -3.5100 hn        1 MOL      0.335054
    148 H68        -7.3730   -0.6210   -1.3660 h1        1 MOL     -0.020544
    149 H69        -8.4520   -1.6970   -3.3420 hc        1 MOL      0.128012
    150 H70        -7.2790   -0.9910   -4.3420 hc        1 MOL      0.128012
    151 H71        -6.7620   -2.2330   -3.0830 hc        1 MOL      0.128012
    152 N14        -9.3800    0.8990   -2.3080 n         1 MOL     -0.449459
    153 C49        -9.8830    0.1340   -1.2540 c3        1 MOL     -0.045896
    154 C50        -9.3900    0.6660    0.1510 c         1 MOL      0.376285
    155 O20        -9.0540   -0.1520    1.0160 o         1 MOL     -0.506037
    156 C51       -11.4550    0.2350   -1.2150 c3        1 MOL      0.280713
    157 C52       -12.0090   -0.8660   -0.2830 c3        1 MOL     -0.525722
    158 C53       -13.5130   -0.7990   -0.2130 c         1 MOL      0.795198
    159 O21       -14.2740   -1.3300   -1.0380 o         1 MOL     -0.660869
    160 O22       -14.0850   -0.0950    0.6490 o         1 MOL     -0.660869
    161 H72       -10.0000    1.6470   -2.5970 hn        1 MOL      0.288034
    162 H73        -9.6210   -0.9270   -1.3300 h1        1 MOL      0.076000
    163 H74       -11.7650    0.0530   -2.2480 hc        1 MOL     -0.032516
    164 H75       -11.7430    1.2770   -1.0330 hc        1 MOL     -0.032516
    165 H76       -11.5540   -0.7930    0.7120 hc        1 MOL      0.124692
    166 H77       -11.7560   -1.8190   -0.7410 hc        1 MOL      0.124692
    167 N15        -9.4710    2.0060    0.2320 n         1 MOL     -0.194010
    168 C54        -9.0480    2.7730    1.4350 c3        1 MOL     -0.186675
    169 H78        -9.8530    3.4410    1.7420 h1        1 MOL      0.098913
    170 H79        -8.8210    2.0810    2.2470 h1        1 MOL      0.098913
    171 H80        -8.1600    3.3600    1.1990 h1        1 MOL      0.098913
    172 H81        -9.7350    2.4750   -0.6170 hn        1 MOL      0.236129
    173 Ca1         2.4430    0.3530   -0.8030 Ca        1 MOL      1.757080
    174 O23         0.4510    1.8740   -1.4150 oh        1 MOL     -0.825405
    175 H82         0.2700    2.5870   -2.0210 ho        1 MOL      0.400194
    176 H83        -0.3830    1.6990   -0.9920 ho        1 MOL      0.400194
    177 O24         0.5880   -1.2470   -1.6730 oh        1 MOL     -0.825405
    178 H84        -0.2520   -1.0180   -2.0600 ho        1 MOL      0.400194
    179 H85         0.4240   -2.0690   -1.2170 ho        1 MOL      0.400194
    180 O25         2.3280    1.1090   -3.4420 oh        1 MOL     -0.825405
    181 H86         2.6730    0.3400   -3.8960 ho        1 MOL      0.400194
    182 H87         2.3390    1.7980   -4.1100 ho        1 MOL      0.400194
@<TRIPOS>BOND
     1    1    2 1   
     2    1    4 1   
     3    1    5 1   
     4    1    6 1   
     5    2    3 2   
     6    2    7 1   
     7    7    8 1   
     8    7   15 1   
     9    8    9 1   
    10    8   11 1   
    11    8   16 1   
    12    9   10 2   
    13    9   19 1   
    14   11   12 1   
    15   11   17 1   
    16   11   18 1   
    17   12   13 1   
    18   12   14 1   
    19   19   20 1   
    20   19   28 1   
    21   20   21 1   
    22   20   23 1   
    23   20   29 1   
    24   21   22 2   
    25   21   41 1   
    26   23   24 1   
    27   23   30 1   
    28   23   31 1   
    29   24   25 1   
    30   24   32 1   
    31   24   33 1   
    32   25   26 1   
    33   25   34 1   
    34   25   35 1   
    35   26   27 1   
    36   26   36 1   
    37   26   37 1   
    38   27   38 1   
    39   27   39 1   
    40   27   40 1   
    41   41   42 1   
    42   41   49 1   
    43   42   43 1   
    44   42   45 1   
    45   42   50 1   
    46   43   44 2   
    47   43   53 1   
    48   45   46 1   
    49   45   51 1   
    50   45   52 1   
    51   46   47 1   
    52   46   48 1   
    53   53   54 1   
    54   53   57 1   
    55   54   55 1   
    56   54   58 1   
    57   54   59 1   
    58   55   56 2   
    59   55   60 1   
    60   60   61 1   
    61   60   68 1   
    62   61   62 1   
    63   61   64 1   
    64   61   69 1   
    65   62   63 2   
    66   62   74 1   
    67   64   65 1   
    68   64   70 1   
    69   64   71 1   
    70   65   66 1   
    71   65   67 2   
    72   66   72 1   
    73   66   73 1   
    74   74   75 1   
    75   74   78 1   
    76   75   76 1   
    77   75   79 1   
    78   75   80 1   
    79   76   77 2   
    80   76   81 1   
    81   81   82 1   
    82   81   93 1   
    83   82   83 1   
    84   82   85 1   
    85   82   94 1   
    86   83   84 2   
    87   83  102 1   
    88   85   86 1   
    89   85   95 1   
    90   85   96 1   
    91   86   87 ar  
    92   86   88 ar  
    93   87   89 ar  
    94   87   97 1   
    95   88   90 ar  
    96   88   98 1   
    97   89   91 ar  
    98   89   99 1   
    99   90   91 ar  
   100   90  100 1   
   101   91   92 1   
   102   92  101 1   
   103  102  103 1   
   104  102  110 1   
   105  103  104 1   
   106  103  106 1   
   107  103  111 1   
   108  104  105 2   
   109  104  121 1   
   110  106  107 1   
   111  106  108 1   
   112  106  112 1   
   113  107  109 1   
   114  107  113 1   
   115  107  114 1   
   116  108  115 1   
   117  108  116 1   
   118  108  117 1   
   119  109  118 1   
   120  109  119 1   
   121  109  120 1   
   122  121  122 1   
   123  121  127 1   
   124  122  123 1   
   125  122  125 1   
   126  122  128 1   
   127  123  124 2   
   128  123  132 1   
   129  125  126 1   
   130  125  129 1   
   131  125  130 1   
   132  126  131 1   
   133  132  133 1   
   134  132  137 1   
   135  133  134 1   
   136  133  136 1   
   137  133  138 1   
   138  134  135 2   
   139  134  142 1   
   140  136  139 1   
   141  136  140 1   
   142  136  141 1   
   143  142  143 1   
   144  142  147 1   
   145  143  144 1   
   146  143  146 1   
   147  143  148 1   
   148  144  145 2   
   149  144  152 1   
   150  146  149 1   
   151  146  150 1   
   152  146  151 1   
   153  152  153 1   
   154  152  161 1   
   155  153  154 1   
   156  153  156 1   
   157  153  162 1   
   158  154  155 2   
   159  154  167 1   
   160  156  157 1   
   161  156  163 1   
   162  156  164 1   
   163  157  158 1   
   164  157  165 1   
   165  157  166 1   
   166  158  159 1   
   167  158  160 1   
   168  167  168 1   
   169  167  172 1   
   170  168  169 1   
   171  168  170 1   
   172  168  171 1   
   173  174  175 1   
   174  174  176 1   
   175  177  178 1   
   176  177  179 1   
   177  180  181 1   
   178  180  182 1   
@<TRIPOS>SUBSTRUCTURE
     1 MOL         1 TEMP              0 ****  ****    0 ROOT
