@<TRIPOS>MOLECULE
MOL
  188   182     1     0     0
SMALL
resp


@<TRIPOS>ATOM
      1 C1          5.2970   -0.0350    5.5870 c3        1 MOL     -0.368004
      2 C2          4.4060    0.1970    4.3510 c         1 MOL      0.699053
      3 O1          3.3050    0.7120    4.4430 o         1 MOL     -0.580147
      4 H1          5.2660   -1.0890    5.8630 hc        1 MOL      0.097147
      5 H2          6.3230    0.2480    5.3530 hc        1 MOL      0.097147
      6 H3          4.9320    0.5690    6.4170 hc        1 MOL      0.097147
      7 N1          4.7760   -0.3640    3.1810 n         1 MOL     -0.485265
      8 C3          3.9500   -0.4350    1.9680 c3        1 MOL     -0.028399
      9 C4          3.7480   -1.7750    1.3360 c         1 MOL      0.256215
     10 O2          2.7660   -1.9300    0.6530 o         1 MOL     -0.338699
     11 C5          4.3660    0.5450    0.9060 c3        1 MOL     -0.087591
     12 C6          5.8200    0.2990    0.3940 c         1 MOL      0.607558
     13 O3          6.3510   -0.8590    0.2030 o         1 MOL     -0.598954
     14 O4          6.5710    1.2990    0.1260 o         1 MOL     -0.598954
     15 H4          5.6730   -0.8200    3.0860 hn        1 MOL      0.286713
     16 H5          2.9350   -0.1410    2.2510 h1        1 MOL      0.183124
     17 H6          4.2200    1.5450    1.3300 hc        1 MOL      0.005491
     18 H7          3.6730    0.4340    0.0820 hc        1 MOL      0.005491
     19 N2          4.5710   -2.7700    1.5490 n         1 MOL     -0.524871
     20 C7          4.6960   -4.1480    0.9760 c3        1 MOL      0.244790
     21 C8          4.8770   -4.2290   -0.5710 c         1 MOL      0.533919
     22 O5          5.6390   -5.0690   -0.9940 o         1 MOL     -0.577558
     23 C9          5.6800   -4.9480    1.8570 c3        1 MOL     -0.217092
     24 C10         5.1690   -4.9800    3.3350 c3        1 MOL      0.252519
     25 C11         5.9580   -5.8360    4.3500 c3        1 MOL     -0.142565
     26 C12         5.7630   -7.2920    3.9440 c3        1 MOL      0.046696
     27 N3          6.2480   -8.2510    4.9310 n4        1 MOL     -0.399970
     28 H8          5.2540   -2.5420    2.2600 hn        1 MOL      0.314665
     29 H9          3.6990   -4.5170    1.1880 h1        1 MOL      0.008660
     30 H10         6.6820   -4.5320    1.8960 hc        1 MOL      0.074630
     31 H11         5.7690   -5.9450    1.4340 hc        1 MOL      0.074630
     32 H12         4.1850   -5.4310    3.3150 hc        1 MOL     -0.065982
     33 H13         5.2160   -3.9690    3.7210 hc        1 MOL     -0.065982
     34 H14         5.5470   -5.6140    5.3360 hc        1 MOL      0.055690
     35 H15         6.9900   -5.4960    4.3900 hc        1 MOL      0.055690
     36 H16         6.1310   -7.4910    2.9390 hx        1 MOL      0.087367
     37 H17         4.6940   -7.4620    3.8440 hx        1 MOL      0.087367
     38 H18         5.8160   -9.1480    4.7570 hn        1 MOL      0.314004
     39 H19         7.2610   -8.2940    4.9050 hn        1 MOL      0.314004
     40 H20         5.9780   -7.8180    5.7930 hn        1 MOL      0.314004
     41 N4          4.1460   -3.4010   -1.3120 n         1 MOL     -0.134323
     42 C13         4.1240   -3.4260   -2.8210 c3        1 MOL     -0.102503
     43 C14         4.1730   -1.9550   -3.3180 c         1 MOL      0.434064
     44 O6          3.8320   -1.7000   -4.4790 o         1 MOL     -0.501743
     45 C15         2.8240   -4.1950   -3.3240 c3        1 MOL     -0.018172
     46 C16         1.5500   -3.3210   -3.1570 c         1 MOL      0.653177
     47 O7          0.7240   -3.3530   -4.1140 o         1 MOL     -0.623987
     48 O8          1.3070   -2.7780   -2.0420 o         1 MOL     -0.623987
     49 H21         3.6360   -2.6880   -0.8060 hn        1 MOL     -0.133002
     50 H22         4.9290   -3.9710   -3.3240 h1        1 MOL      0.147678
     51 H23         2.7550   -5.1120   -2.7300 hc        1 MOL      0.008029
     52 H24         3.0730   -4.3600   -4.3730 hc        1 MOL      0.008029
     53 N5          4.5980   -1.0430   -2.5510 n         1 MOL     -0.287893
     54 C17         4.8030    0.3080   -3.0200 c3        1 MOL     -0.004151
     55 C18         6.1990    0.6940   -3.5310 c         1 MOL      0.559383
     56 O9          7.0730   -0.1390   -3.7500 o         1 MOL     -0.530396
     57 H25         4.9730   -1.2470   -1.6330 hn        1 MOL      0.268713
     58 H26         4.6190    0.9460   -2.1570 h1        1 MOL      0.048845
     59 H27         4.1130    0.6760   -3.7750 h1        1 MOL      0.048845
     60 N6          6.5770    2.0040   -3.6220 n         1 MOL     -0.523123
     61 C19         5.8020    3.1890   -3.3480 c3        1 MOL      0.193620
     62 C20         5.9520    3.6350   -1.8360 c         1 MOL      0.488724
     63 O10         7.1010    3.9070   -1.4960 o         1 MOL     -0.519743
     64 C21         6.3470    4.2550   -4.2950 c3        1 MOL     -0.291039
     65 C22         5.4040    5.4370   -4.4040 c         1 MOL      0.681549
     66 N7          5.3220    6.1180   -5.5030 n         1 MOL     -0.793918
     67 O11         4.5480    5.7150   -3.5740 o         1 MOL     -0.556204
     68 H28         7.5380    2.1790   -3.8620 hn        1 MOL      0.324748
     69 H29         4.7590    2.9040   -3.4330 h1        1 MOL      0.037296
     70 H30         6.5090    3.8670   -5.3070 hc        1 MOL      0.086464
     71 H31         7.3260    4.6630   -4.0390 hc        1 MOL      0.086464
     72 H32         6.1020    6.1130   -6.1460 hn        1 MOL      0.362978
     73 H33         4.4760    6.6530   -5.6520 hn        1 MOL      0.362978
     74 N8          4.9570    3.7290   -0.9650 n         1 MOL     -0.445865
     75 C23         3.5050    3.4740   -1.1990 c3        1 MOL      0.062431
     76 C24         2.5660    4.1460   -0.1680 c         1 MOL      0.659784
     77 O12         3.1150    4.9520    0.6060 o         1 MOL     -0.520982
     78 H34         5.2870    4.1840   -0.1240 hn        1 MOL      0.306618
     79 H35         3.3850    2.3910   -1.0970 h1        1 MOL      0.003302
     80 H36         3.1480    3.7860   -2.1750 h1        1 MOL      0.003302
     81 N9          1.2780    3.9220   -0.2210 n         1 MOL     -0.566789
     82 C25         0.2790    4.3710    0.6640 c3        1 MOL      0.099691
     83 C26        -0.9570    3.4750    0.7140 c         1 MOL      0.626490
     84 O13        -0.9940    2.5960   -0.0600 o         1 MOL     -0.533498
     85 C27        -0.0770    5.7790    0.3040 c3        1 MOL     -0.138061
     86 C28        -0.8440    6.5320    1.3420 ca        1 MOL     -0.023108
     87 C29        -2.2130    6.9450    1.0960 ca        1 MOL     -0.096485
     88 C30        -0.2370    6.8010    2.6130 ca        1 MOL     -0.096485
     89 C31        -2.9380    7.6330    2.1190 ca        1 MOL     -0.306744
     90 C32        -1.0300    7.4510    3.5730 ca        1 MOL     -0.306744
     91 C33        -2.2620    7.9700    3.3030 ca        1 MOL      0.387180
     92 O14        -2.8620    8.6300    4.3150 oh        1 MOL     -0.491063
     93 H37         0.9240    3.2120   -0.8480 hn        1 MOL      0.310094
     94 H38         0.6670    4.3890    1.6850 h1        1 MOL      0.035367
     95 H39        -0.6510    5.7650   -0.6230 hc        1 MOL      0.084933
     96 H40         0.8360    6.3150    0.0310 hc        1 MOL      0.084933
     97 H41        -2.6520    6.6170    0.1630 ha        1 MOL      0.129751
     98 H42         0.8040    6.6000    2.8010 ha        1 MOL      0.129751
     99 H43        -3.8980    8.0510    1.8570 ha        1 MOL      0.156816
    100 H44        -0.5670    7.6690    4.5300 ha        1 MOL      0.156816
    101 H45        -2.2760    8.6560    5.0700 ho        1 MOL      0.350861
    102 N10        -1.8290    3.5740    1.7690 n         1 MOL     -0.458820
    103 C34        -3.1210    2.8200    1.8510 c3        1 MOL     -0.130149
    104 C35        -4.0210    3.2400    0.6830 c         1 MOL      0.732923
    105 O15        -4.1040    4.3450    0.1670 o         1 MOL     -0.513466
    106 C36        -3.8000    3.0440    3.1980 c3        1 MOL     -0.007224
    107 C37        -3.1030    2.3180    4.4190 c3        1 MOL     -0.018423
    108 C38        -3.7970    4.5690    3.4940 c3        1 MOL     -0.022921
    109 C39        -3.8100    2.5830    5.7260 c3        1 MOL     -0.244775
    110 H46        -1.6830    4.2690    2.4830 hn        1 MOL      0.234141
    111 H47        -2.9930    1.7340    1.8030 h1        1 MOL      0.033983
    112 H48        -4.8370    2.6980    3.2110 hc        1 MOL      0.059867
    113 H49        -2.1070    2.7420    4.5150 hc        1 MOL      0.045917
    114 H50        -2.8880    1.2520    4.3000 hc        1 MOL      0.045917
    115 H51        -4.2670    5.1010    2.6650 hc        1 MOL      0.032741
    116 H52        -4.2780    4.9000    4.4140 hc        1 MOL      0.032741
    117 H53        -2.7850    4.9780    3.6200 hc        1 MOL      0.032741
    118 H54        -4.8900    2.5330    5.5620 hc        1 MOL      0.065718
    119 H55        -3.4970    1.8020    6.4310 hc        1 MOL      0.065718
    120 H56        -3.6620    3.6180    6.0170 hc        1 MOL      0.065718
    121 N11        -4.8420    2.2690    0.3240 n         1 MOL     -0.516945
    122 C40        -5.6820    2.2720   -0.8560 c3        1 MOL     -0.163165
    123 C41        -5.7750    1.0360   -1.7030 c         1 MOL      0.823201
    124 O16        -5.3520   -0.0350   -1.2770 o         1 MOL     -0.526657
    125 C42        -7.0440    2.7580   -0.2500 c3        1 MOL     -0.034206
    126 O17        -7.6380    1.7320    0.5210 oh        1 MOL     -0.588550
    127 H57        -4.9000    1.3960    0.8260 hn        1 MOL      0.316154
    128 H58        -5.2790    3.0620   -1.5030 h1        1 MOL      0.111297
    129 H59        -7.7980    2.9710   -1.0080 h1        1 MOL      0.083667
    130 H60        -6.8740    3.6110    0.4110 h1        1 MOL      0.083667
    131 H61        -8.4250    2.1030    0.8990 ho        1 MOL      0.421201
    132 N12        -6.0780    1.2030   -2.9920 n         1 MOL     -0.653079
    133 C43        -6.1650    0.0970   -3.9560 c3        1 MOL      0.264875
    134 C44        -6.9750   -1.1840   -3.5080 c         1 MOL      0.413929
    135 O18        -6.5940   -2.2750   -3.8680 o         1 MOL     -0.436254
    136 C45        -4.8610   -0.3190   -4.6210 c3        1 MOL     -0.398539
    137 H62        -6.2700    2.0980   -3.4240 hn        1 MOL      0.332494
    138 H63        -6.7390    0.5520   -4.7690 h1        1 MOL      0.042231
    139 H64        -5.1780   -0.7300   -5.5780 hc        1 MOL      0.135746
    140 H65        -4.3720    0.6050   -4.9200 hc        1 MOL      0.135746
    141 H66        -4.2440   -0.9330   -3.9740 hc        1 MOL      0.135746
    142 N13        -8.0150   -1.0290   -2.6590 n         1 MOL     -0.673141
    143 C46        -8.7840   -2.0800   -2.0900 c3        1 MOL      0.653107
    144 C47        -8.0590   -3.1770   -1.3520 c         1 MOL      0.066611
    145 O19        -8.4780   -4.3260   -1.3410 o         1 MOL     -0.446958
    146 C48        -9.8130   -2.5540   -3.1550 c3        1 MOL     -0.197834
    147 H67        -8.2960   -0.0860   -2.4380 hn        1 MOL      0.307801
    148 H68        -9.3720   -1.5630   -1.3310 h1        1 MOL     -0.062184
    149 H69       -10.6370   -3.0400   -2.6390 hc        1 MOL      0.042038
    150 H70       -10.1750   -1.6650   -3.6580 hc        1 MOL      0.042038
    151 H71        -9.3300   -3.2420   -3.8430 hc        1 MOL      0.042038
    152 N14        -6.8170   -2.9200   -0.9790 n         1 MOL      0.050577
    153 C49        -5.9540   -4.0320   -0.5130 c3        1 MOL     -0.189444
    154 C50        -6.4720   -4.6110    0.7900 c         1 MOL      0.487761
    155 O20        -6.4480   -5.8570    0.9470 o         1 MOL     -0.538026
    156 C51        -4.4840   -3.5400   -0.4420 c3        1 MOL      0.532908
    157 C52        -3.5530   -4.6960   -0.4320 c3        1 MOL     -0.718926
    158 C53        -2.1160   -4.3030   -0.1610 c         1 MOL      0.900454
    159 O21        -1.4620   -4.0480   -1.1670 o         1 MOL     -0.760465
    160 O22        -1.6290   -4.1870    0.9940 o         1 MOL     -0.760465
    161 H72        -6.4280   -2.0050   -1.1550 hn        1 MOL      0.014882
    162 H73        -6.0900   -4.7610   -1.3020 h1        1 MOL      0.149557
    163 H74        -4.2820   -2.9760    0.4650 hc        1 MOL     -0.093574
    164 H75        -4.2650   -2.9300   -1.3120 hc        1 MOL     -0.093574
    165 H76        -3.5980   -5.0980   -1.4480 hc        1 MOL      0.180627
    166 H77        -3.8460   -5.4090    0.3420 hc        1 MOL      0.180627
    167 N15        -6.8760   -3.8530    1.7930 n         1 MOL     -0.180909
    168 C54        -7.4080   -4.2500    3.1260 c3        1 MOL     -0.541668
    169 H78        -7.3210   -5.3290    3.2450 h1        1 MOL      0.194021
    170 H79        -6.8360   -3.7510    3.9090 h1        1 MOL      0.194021
    171 H80        -8.4570   -3.9590    3.2000 h1        1 MOL      0.194021
    172 H81        -6.9990   -2.8940    1.4960 hn        1 MOL      0.152354
    173 Ca1         0.1470   -2.1560    0.1650 Ca        1 MOL      1.657320
    174 O23         1.1510   -4.5600    0.8530 oh        1 MOL     -0.791344
    175 H82         0.3710   -4.8940    1.3010 ho        1 MOL      0.388284
    176 H83         1.6280   -5.3400    0.5620 ho        1 MOL      0.388284
    177 O24         0.5700    0.3540    1.1990 oh        1 MOL     -0.791344
    178 H84         0.4080    1.0550    0.5700 ho        1 MOL      0.388284
    179 H85         0.6680    0.7950    2.0390 ho        1 MOL      0.388284
    180 O25        -1.9940   -1.8420    2.0050 oh        1 MOL     -0.791344
    181 H86        -2.9080   -1.5340    1.9670 ho        1 MOL      0.388284
    182 H87        -2.0490   -2.7800    1.8600 ho        1 MOL      0.388284
    183 O26         0.8380   -2.2940    2.7250 oh        1 MOL     -0.791344
    184 H88         1.7570   -2.5500    2.8170 ho        1 MOL      0.388284
    185 H89         0.5490   -2.0770    3.6060 ho        1 MOL      0.388284
    186 O27        -1.6990   -0.8350   -0.9500 oh        1 MOL     -0.791344
    187 H90        -1.5880   -0.0190   -1.4430 ho        1 MOL      0.388284
    188 H91        -2.5740   -0.7740   -0.5630 ho        1 MOL      0.388284
@<TRIPOS>BOND
     1    1    2 1   
     2    1    4 1   
     3    1    5 1   
     4    1    6 1   
     5    2    3 2   
     6    2    7 1   
     7    7    8 1   
     8    7   15 1   
     9    8    9 1   
    10    8   11 1   
    11    8   16 1   
    12    9   10 2   
    13    9   19 1   
    14   11   12 1   
    15   11   17 1   
    16   11   18 1   
    17   12   13 1   
    18   12   14 1   
    19   19   20 1   
    20   19   28 1   
    21   20   21 1   
    22   20   23 1   
    23   20   29 1   
    24   21   22 2   
    25   21   41 1   
    26   23   24 1   
    27   23   30 1   
    28   23   31 1   
    29   24   25 1   
    30   24   32 1   
    31   24   33 1   
    32   25   26 1   
    33   25   34 1   
    34   25   35 1   
    35   26   27 1   
    36   26   36 1   
    37   26   37 1   
    38   27   38 1   
    39   27   39 1   
    40   27   40 1   
    41   41   42 1   
    42   41   49 1   
    43   42   43 1   
    44   42   45 1   
    45   42   50 1   
    46   43   44 2   
    47   43   53 1   
    48   45   46 1   
    49   45   51 1   
    50   45   52 1   
    51   46   47 1   
    52   46   48 1   
    53   53   54 1   
    54   53   57 1   
    55   54   55 1   
    56   54   58 1   
    57   54   59 1   
    58   55   56 2   
    59   55   60 1   
    60   60   61 1   
    61   60   68 1   
    62   61   62 1   
    63   61   64 1   
    64   61   69 1   
    65   62   63 2   
    66   62   74 1   
    67   64   65 1   
    68   64   70 1   
    69   64   71 1   
    70   65   66 1   
    71   65   67 2   
    72   66   72 1   
    73   66   73 1   
    74   74   75 1   
    75   74   78 1   
    76   75   76 1   
    77   75   79 1   
    78   75   80 1   
    79   76   77 2   
    80   76   81 1   
    81   81   82 1   
    82   81   93 1   
    83   82   83 1   
    84   82   85 1   
    85   82   94 1   
    86   83   84 2   
    87   83  102 1   
    88   85   86 1   
    89   85   95 1   
    90   85   96 1   
    91   86   87 ar  
    92   86   88 ar  
    93   87   89 ar  
    94   87   97 1   
    95   88   90 ar  
    96   88   98 1   
    97   89   91 ar  
    98   89   99 1   
    99   90   91 ar  
   100   90  100 1   
   101   91   92 1   
   102   92  101 1   
   103  102  103 1   
   104  102  110 1   
   105  103  104 1   
   106  103  106 1   
   107  103  111 1   
   108  104  105 2   
   109  104  121 1   
   110  106  107 1   
   111  106  108 1   
   112  106  112 1   
   113  107  109 1   
   114  107  113 1   
   115  107  114 1   
   116  108  115 1   
   117  108  116 1   
   118  108  117 1   
   119  109  118 1   
   120  109  119 1   
   121  109  120 1   
   122  121  122 1   
   123  121  127 1   
   124  122  123 1   
   125  122  125 1   
   126  122  128 1   
   127  123  124 2   
   128  123  132 1   
   129  125  126 1   
   130  125  129 1   
   131  125  130 1   
   132  126  131 1   
   133  132  133 1   
   134  132  137 1   
   135  133  134 1   
   136  133  136 1   
   137  133  138 1   
   138  134  135 2   
   139  134  142 1   
   140  136  139 1   
   141  136  140 1   
   142  136  141 1   
   143  142  143 1   
   144  142  147 1   
   145  143  144 1   
   146  143  146 1   
   147  143  148 1   
   148  144  145 2   
   149  144  152 1   
   150  146  149 1   
   151  146  150 1   
   152  146  151 1   
   153  152  153 1   
   154  152  161 1   
   155  153  154 1   
   156  153  156 1   
   157  153  162 1   
   158  154  155 2   
   159  154  167 1   
   160  156  157 1   
   161  156  163 1   
   162  156  164 1   
   163  157  158 1   
   164  157  165 1   
   165  157  166 1   
   166  158  159 1   
   167  158  160 1   
   168  167  168 1   
   169  167  172 1   
   170  168  169 1   
   171  168  170 1   
   172  168  171 1   
   173  174  175 1   
   174  174  176 1   
   175  177  178 1   
   176  177  179 1   
   177  180  181 1   
   178  180  182 1   
   179  183  184 1   
   180  183  185 1   
   181  186  187 1   
   182  186  188 1   
@<TRIPOS>SUBSTRUCTURE
     1 MOL         1 TEMP              0 ****  ****    0 ROOT
