@<TRIPOS>MOLECULE
MOL
  188   182     1     0     0
SMALL
resp


@<TRIPOS>ATOM
      1 C1         -4.8760    1.5290   -4.7290 c3        1 MOL     -0.477617
      2 C2         -5.2310    1.3550   -3.2220 c         1 MOL      0.713633
      3 O1         -4.3100    1.0620   -2.4160 o         1 MOL     -0.583632
      4 H1         -5.6380    2.1400   -5.2140 hc        1 MOL      0.128280
      5 H2         -3.9070    2.0190   -4.8220 hc        1 MOL      0.128280
      6 H3         -4.8360    0.5510   -5.2090 hc        1 MOL      0.128280
      7 N1         -6.5290    1.4010   -2.8250 n         1 MOL     -0.671838
      8 C3         -7.0360    0.9540   -1.5460 c3        1 MOL      0.436022
      9 C4         -7.0110   -0.5500   -1.2890 c         1 MOL      0.159304
     10 O2         -7.4460   -1.0500   -0.2370 o         1 MOL     -0.380502
     11 C5         -6.4430    1.7780   -0.4590 c3        1 MOL     -0.281371
     12 C6         -7.2200    1.9540    0.8340 c         1 MOL      0.648334
     13 O3         -6.6060    2.1760    1.8900 o         1 MOL     -0.632798
     14 O4         -8.4230    1.7250    0.8610 o         1 MOL     -0.632798
     15 H4         -7.1300    1.8050   -3.5240 hn        1 MOL      0.323984
     16 H5         -8.0930    1.2490   -1.5130 h1        1 MOL     -0.009773
     17 H6         -6.2690    2.7960   -0.8260 hc        1 MOL      0.070801
     18 H7         -5.4690    1.3350   -0.2340 hc        1 MOL      0.070801
     19 N2         -6.3940   -1.4120   -2.1530 n         1 MOL     -0.297053
     20 C7         -6.1730   -2.8570   -1.9170 c3        1 MOL      0.072528
     21 C8         -4.9700   -3.1170   -1.0630 c         1 MOL      0.555634
     22 O5         -4.5450   -4.2150   -0.7270 o         1 MOL     -0.606314
     23 C9         -6.0890   -3.6160   -3.2800 c3        1 MOL     -0.185230
     24 C10        -7.3460   -3.6040   -4.1880 c3        1 MOL      0.192644
     25 C11        -8.4660   -4.3290   -3.3980 c3        1 MOL     -0.067842
     26 C12        -9.6690   -4.3820   -4.2500 c3        1 MOL      0.043779
     27 N3        -10.8020   -4.7560   -3.4440 n4        1 MOL     -0.214935
     28 H8         -6.0580   -0.9720   -3.0000 hn        1 MOL      0.222158
     29 H9         -6.9550   -3.2260   -1.2410 h1        1 MOL      0.049327
     30 H10        -5.9390   -4.6870   -3.1090 hc        1 MOL      0.068339
     31 H11        -5.2870   -3.1780   -3.8750 hc        1 MOL      0.068339
     32 H12        -7.1720   -4.0120   -5.1810 hc        1 MOL     -0.037327
     33 H13        -7.5820   -2.5490   -4.3810 hc        1 MOL     -0.037327
     34 H14        -8.6960   -3.7730   -2.4870 hc        1 MOL      0.050723
     35 H15        -8.0600   -5.3040   -3.1170 hc        1 MOL      0.050723
     36 H16        -9.4890   -5.1430   -5.0070 hx        1 MOL      0.057991
     37 H17        -9.8400   -3.4090   -4.6920 hx        1 MOL      0.057991
     38 H18       -10.6870   -5.6790   -3.0460 hn        1 MOL      0.255998
     39 H19       -10.9270   -4.0690   -2.7080 hn        1 MOL      0.255998
     40 H20       -11.6690   -4.7810   -3.9580 hn        1 MOL      0.255998
     41 N4         -4.2150   -2.0580   -0.7950 n         1 MOL     -0.357340
     42 C13        -3.0150   -2.1440    0.0700 c3        1 MOL      0.004405
     43 C14        -3.4990   -2.2030    1.5240 c         1 MOL      0.482487
     44 O6         -4.0690   -1.2520    2.0590 o         1 MOL     -0.446715
     45 C15        -1.9760   -0.9670   -0.0920 c3        1 MOL     -0.319099
     46 C16        -0.7330   -1.3310    0.8130 c         1 MOL      0.998822
     47 O7         -0.6410   -0.9920    2.0140 o         1 MOL     -0.815735
     48 O8          0.1610   -1.9700    0.3190 o         1 MOL     -0.815735
     49 H21        -4.5180   -1.1510   -1.1320 hn        1 MOL      0.244129
     50 H22        -2.4430   -3.0490   -0.1490 h1        1 MOL      0.088226
     51 H23        -2.4700   -0.0370    0.1930 hc        1 MOL      0.104253
     52 H24        -1.6460   -0.8100   -1.1200 hc        1 MOL      0.104253
     53 N5         -3.1780   -3.2630    2.2480 n         1 MOL     -0.192116
     54 C17        -3.5040   -3.4120    3.6260 c3        1 MOL     -0.341870
     55 C18        -3.1450   -2.3480    4.7230 c         1 MOL      0.559431
     56 O9         -3.8760   -2.1350    5.6860 o         1 MOL     -0.523219
     57 H25        -2.7990   -4.0950    1.8040 hn        1 MOL      0.257300
     58 H26        -2.8960   -4.2910    3.8020 h1        1 MOL      0.133920
     59 H27        -4.5620   -3.6840    3.5860 h1        1 MOL      0.133920
     60 N6         -1.9890   -1.6530    4.6410 n         1 MOL     -0.402247
     61 C19        -1.6970   -0.3870    5.4230 c3        1 MOL      0.149197
     62 C20        -2.0330    0.9640    4.7180 c         1 MOL      0.449185
     63 O10        -2.0160    2.0210    5.3020 o         1 MOL     -0.575992
     64 C21        -0.3280   -0.4070    6.1740 c3        1 MOL     -0.229044
     65 C22         0.8780   -0.4060    5.2490 c         1 MOL      0.813517
     66 N7          1.6130    0.6650    5.3270 n         1 MOL     -0.877077
     67 O11         1.1530   -1.3400    4.5470 o         1 MOL     -0.681547
     68 H28        -1.4140   -1.8540    3.8340 hn        1 MOL      0.146148
     69 H29        -2.3910   -0.3880    6.2570 h1        1 MOL      0.092183
     70 H30        -0.2260   -1.3320    6.7350 hc        1 MOL      0.066096
     71 H31        -0.2390    0.4140    6.8940 hc        1 MOL      0.066096
     72 H32         1.3910    1.4210    5.9510 hn        1 MOL      0.381301
     73 H33         2.3430    0.8960    4.6760 hn        1 MOL      0.381301
     74 N8         -2.3420    0.8320    3.4510 n         1 MOL     -0.169673
     75 C23        -2.7060    1.9990    2.6270 c3        1 MOL      0.102223
     76 C24        -1.6440    2.2310    1.5300 c         1 MOL      0.388912
     77 O12        -0.4670    2.1210    1.8370 o         1 MOL     -0.551294
     78 H34        -2.0890   -0.0340    3.0050 hn        1 MOL      0.180356
     79 H35        -2.8120    2.9550    3.1540 h1        1 MOL      0.047164
     80 H36        -3.6620    1.8320    2.1230 h1        1 MOL      0.047164
     81 N9         -2.0350    2.7740    0.3830 n         1 MOL     -0.265323
     82 C25        -1.0320    3.3880   -0.5800 c3        1 MOL      0.041434
     83 C26         0.0610    2.5000   -1.1530 c         1 MOL      0.595031
     84 O13        -0.1070    1.3120   -1.2490 o         1 MOL     -0.461205
     85 C27        -1.8040    4.1770   -1.7360 c3        1 MOL     -0.054729
     86 C28        -2.7340    5.2740   -1.0870 ca        1 MOL     -0.059564
     87 C29        -4.0400    4.9010   -0.7330 ca        1 MOL     -0.124029
     88 C30        -2.2340    6.5970   -0.8980 ca        1 MOL     -0.124029
     89 C31        -4.8520    5.8960   -0.2160 ca        1 MOL     -0.259402
     90 C32        -3.0170    7.5240   -0.2660 ca        1 MOL     -0.259402
     91 C33        -4.3140    7.1340    0.0500 ca        1 MOL      0.389586
     92 O14        -5.0980    8.1180    0.6070 oh        1 MOL     -0.540857
     93 H37        -3.0240    2.7480    0.1820 hn        1 MOL      0.229762
     94 H38        -0.5520    4.1970   -0.0240 h1        1 MOL      0.065817
     95 H39        -2.4110    3.5610   -2.4090 hc        1 MOL      0.051861
     96 H40        -1.0440    4.6850   -2.3130 hc        1 MOL      0.051861
     97 H41        -4.4870    3.9490   -0.9690 ha        1 MOL      0.116905
     98 H42        -1.2050    6.7760   -1.1940 ha        1 MOL      0.116905
     99 H43        -5.8080    5.5960    0.1650 ha        1 MOL      0.157011
    100 H44        -2.7040    8.5490   -0.1090 ha        1 MOL      0.157011
    101 H45        -6.0340    7.8960    0.6240 ho        1 MOL      0.383869
    102 N10         1.2420    3.0000   -1.5260 n         1 MOL     -0.716705
    103 C34         2.3840    2.1840   -1.9600 c3        1 MOL      0.253719
    104 C35         3.5490    2.2540   -0.9740 c         1 MOL      0.451909
    105 O15         4.3010    1.2510   -0.7700 o         1 MOL     -0.533908
    106 C36         2.8740    2.5950   -3.4440 c3        1 MOL      0.029847
    107 C37         1.6390    2.4790   -4.4040 c3        1 MOL      0.036998
    108 C38         4.1390    1.7650   -3.8240 c3        1 MOL     -0.318660
    109 C39         1.3520    1.1180   -4.9770 c3        1 MOL     -0.071047
    110 H46         1.4270    3.9900   -1.4410 hn        1 MOL      0.299262
    111 H47         2.1380    1.1320   -2.0570 h1        1 MOL      0.104835
    112 H48         3.2550    3.6140   -3.4690 hc        1 MOL     -0.027849
    113 H49         1.8660    3.0940   -5.2730 hc        1 MOL     -0.003450
    114 H50         0.7440    2.9030   -3.9470 hc        1 MOL     -0.003450
    115 H51         3.9080    0.7040   -3.6940 hc        1 MOL      0.082991
    116 H52         4.4780    1.8800   -4.8560 hc        1 MOL      0.082991
    117 H53         5.0060    2.0740   -3.2460 hc        1 MOL      0.082991
    118 H54         2.1700    0.8630   -5.6590 hc        1 MOL      0.030405
    119 H55         1.3790    0.4760   -4.0970 hc        1 MOL      0.030405
    120 H56         0.4240    1.0250   -5.5270 hc        1 MOL      0.030405
    121 N11         3.8280    3.4310   -0.3820 n         1 MOL     -0.308053
    122 C40         4.8740    3.6310    0.5720 c3        1 MOL      0.060342
    123 C41         6.3210    3.1960    0.1680 c         1 MOL      0.214962
    124 O16         7.0880    2.7990    1.0420 o         1 MOL     -0.491462
    125 C42         4.8630    5.0870    1.0810 c3        1 MOL      0.298877
    126 O17         3.5410    5.6060    1.2330 oh        1 MOL     -0.607326
    127 H57         3.3420    4.2250   -0.7860 hn        1 MOL      0.217739
    128 H58         4.6300    3.0610    1.4640 h1        1 MOL      0.098547
    129 H59         5.3750    5.8020    0.4340 h1        1 MOL     -0.011868
    130 H60         5.3010    5.1390    2.0780 h1        1 MOL     -0.011868
    131 H61         3.6780    6.5460    1.0910 ho        1 MOL      0.401349
    132 N12         6.7270    3.2200   -1.0600 n         1 MOL     -0.122743
    133 C43         8.0240    2.7740   -1.6240 c3        1 MOL      0.196230
    134 C44         8.3690    1.2790   -1.3480 c         1 MOL      0.474703
    135 O18         9.5420    0.8420   -1.4670 o         1 MOL     -0.542671
    136 C45         9.1370    3.8280   -1.2630 c3        1 MOL     -0.381308
    137 H62         6.1460    3.7170   -1.7130 hn        1 MOL      0.180711
    138 H63         7.8370    2.8030   -2.7010 h1        1 MOL      0.038220
    139 H64         8.7260    4.8060   -1.5060 hc        1 MOL      0.112361
    140 H65         9.3870    3.7490   -0.2080 hc        1 MOL      0.112361
    141 H66         9.9810    3.5760   -1.9030 hc        1 MOL      0.112361
    142 N13         7.3790    0.4340   -1.0490 n         1 MOL     -0.511067
    143 C46         7.5530   -0.9560   -0.6450 c3        1 MOL      0.610418
    144 C47         6.5790   -1.9280   -1.2920 c         1 MOL      0.236837
    145 O19         5.6110   -1.4980   -1.9390 o         1 MOL     -0.428413
    146 C48         7.4510   -1.0110    0.8670 c3        1 MOL     -0.615501
    147 H67         6.4180    0.7390   -0.9840 hn        1 MOL      0.192542
    148 H68         8.4940   -1.4190   -0.9600 h1        1 MOL     -0.049935
    149 H69         8.1330   -0.2700    1.2830 hc        1 MOL      0.163426
    150 H70         6.4490   -0.7470    1.2250 hc        1 MOL      0.163426
    151 H71         7.6370   -2.0360    1.1910 hc        1 MOL      0.163426
    152 N14         6.9260   -3.1720   -1.1490 n         1 MOL     -0.533936
    153 C49         6.2530   -4.3350   -1.7790 c3        1 MOL     -0.132170
    154 C50         6.1060   -4.3390   -3.2990 c         1 MOL      0.452376
    155 O20         5.5230   -5.2960   -3.8360 o         1 MOL     -0.507188
    156 C51         4.9000   -4.6260   -1.1380 c3        1 MOL      0.287981
    157 C52         4.9770   -4.8340    0.4040 c3        1 MOL     -0.209796
    158 C53         3.6950   -5.2750    0.9400 c         1 MOL      0.725936
    159 O21         2.7850   -4.4220    1.0940 o         1 MOL     -0.696767
    160 O22         3.5030   -6.5020    1.0730 o         1 MOL     -0.696767
    161 H72         7.7310   -3.3480   -0.5620 hn        1 MOL      0.375476
    162 H73         6.9010   -5.1920   -1.5990 h1        1 MOL      0.112214
    163 H74         4.4410   -5.4980   -1.5880 hc        1 MOL     -0.015263
    164 H75         4.2910   -3.7620   -1.3860 hc        1 MOL     -0.015263
    165 H76         5.3020   -3.8790    0.8230 hc        1 MOL     -0.009186
    166 H77         5.8020   -5.5500    0.4690 hc        1 MOL     -0.009186
    167 N15         6.6240   -3.2970   -3.9430 n         1 MOL     -0.196069
    168 C54         6.4790   -3.0880   -5.3260 c3        1 MOL     -0.265947
    169 H78         5.4860   -2.6890   -5.5310 h1        1 MOL      0.110969
    170 H79         7.2320   -2.3770   -5.6680 h1        1 MOL      0.110969
    171 H80         6.6060   -4.0340   -5.8530 h1        1 MOL      0.110969
    172 H81         7.0910   -2.6240   -3.3540 hn        1 MOL      0.251180
    173 Ca1         2.0610   -2.0930    2.0930 Ca        1 MOL      1.730952
    174 O23         3.7930   -1.1620    0.2390 oh        1 MOL     -0.858089
    175 H82         3.8610   -0.2060    0.1730 ho        1 MOL      0.421932
    176 H83         4.4040   -1.4840   -0.4200 ho        1 MOL      0.421932
    177 O24         4.0720   -0.9180    3.3750 oh        1 MOL     -0.858089
    178 H84         4.4290   -0.0290    3.3570 ho        1 MOL      0.421932
    179 H85         4.4720   -1.3250    4.1330 ho        1 MOL      0.421932
    180 O25         3.3100   -3.7510    3.9910 oh        1 MOL     -0.858089
    181 H86         3.5840   -4.6340    4.2340 ho        1 MOL      0.421932
    182 H87         3.1860   -3.3040    4.8250 ho        1 MOL      0.421932
    183 O26         1.9200    0.3960    1.7260 oh        1 MOL     -0.858089
    184 H88         1.0170    0.7090    1.6760 ho        1 MOL      0.421932
    185 H89         2.3670    1.0400    2.2710 ho        1 MOL      0.421932
    186 O27         0.0780   -3.8230    2.8210 oh        1 MOL     -0.858089
    187 H90         0.0230   -3.8000    3.7730 ho        1 MOL      0.421932
    188 H91        -0.3100   -4.6620    2.5810 ho        1 MOL      0.421932
@<TRIPOS>BOND
     1    1    2 1   
     2    1    4 1   
     3    1    5 1   
     4    1    6 1   
     5    2    3 2   
     6    2    7 1   
     7    7    8 1   
     8    7   15 1   
     9    8    9 1   
    10    8   11 1   
    11    8   16 1   
    12    9   10 2   
    13    9   19 1   
    14   11   12 1   
    15   11   17 1   
    16   11   18 1   
    17   12   13 1   
    18   12   14 1   
    19   19   20 1   
    20   19   28 1   
    21   20   21 1   
    22   20   23 1   
    23   20   29 1   
    24   21   22 2   
    25   21   41 1   
    26   23   24 1   
    27   23   30 1   
    28   23   31 1   
    29   24   25 1   
    30   24   32 1   
    31   24   33 1   
    32   25   26 1   
    33   25   34 1   
    34   25   35 1   
    35   26   27 1   
    36   26   36 1   
    37   26   37 1   
    38   27   38 1   
    39   27   39 1   
    40   27   40 1   
    41   41   42 1   
    42   41   49 1   
    43   42   43 1   
    44   42   45 1   
    45   42   50 1   
    46   43   44 2   
    47   43   53 1   
    48   45   46 1   
    49   45   51 1   
    50   45   52 1   
    51   46   47 1   
    52   46   48 1   
    53   53   54 1   
    54   53   57 1   
    55   54   55 1   
    56   54   58 1   
    57   54   59 1   
    58   55   56 2   
    59   55   60 1   
    60   60   61 1   
    61   60   68 1   
    62   61   62 1   
    63   61   64 1   
    64   61   69 1   
    65   62   63 2   
    66   62   74 1   
    67   64   65 1   
    68   64   70 1   
    69   64   71 1   
    70   65   66 1   
    71   65   67 2   
    72   66   72 1   
    73   66   73 1   
    74   74   75 1   
    75   74   78 1   
    76   75   76 1   
    77   75   79 1   
    78   75   80 1   
    79   76   77 2   
    80   76   81 1   
    81   81   82 1   
    82   81   93 1   
    83   82   83 1   
    84   82   85 1   
    85   82   94 1   
    86   83   84 2   
    87   83  102 1   
    88   85   86 1   
    89   85   95 1   
    90   85   96 1   
    91   86   87 ar  
    92   86   88 ar  
    93   87   89 ar  
    94   87   97 1   
    95   88   90 ar  
    96   88   98 1   
    97   89   91 ar  
    98   89   99 1   
    99   90   91 ar  
   100   90  100 1   
   101   91   92 1   
   102   92  101 1   
   103  102  103 1   
   104  102  110 1   
   105  103  104 1   
   106  103  106 1   
   107  103  111 1   
   108  104  105 2   
   109  104  121 1   
   110  106  107 1   
   111  106  108 1   
   112  106  112 1   
   113  107  109 1   
   114  107  113 1   
   115  107  114 1   
   116  108  115 1   
   117  108  116 1   
   118  108  117 1   
   119  109  118 1   
   120  109  119 1   
   121  109  120 1   
   122  121  122 1   
   123  121  127 1   
   124  122  123 1   
   125  122  125 1   
   126  122  128 1   
   127  123  124 2   
   128  123  132 1   
   129  125  126 1   
   130  125  129 1   
   131  125  130 1   
   132  126  131 1   
   133  132  133 1   
   134  132  137 1   
   135  133  134 1   
   136  133  136 1   
   137  133  138 1   
   138  134  135 2   
   139  134  142 1   
   140  136  139 1   
   141  136  140 1   
   142  136  141 1   
   143  142  143 1   
   144  142  147 1   
   145  143  144 1   
   146  143  146 1   
   147  143  148 1   
   148  144  145 2   
   149  144  152 1   
   150  146  149 1   
   151  146  150 1   
   152  146  151 1   
   153  152  153 1   
   154  152  161 1   
   155  153  154 1   
   156  153  156 1   
   157  153  162 1   
   158  154  155 2   
   159  154  167 1   
   160  156  157 1   
   161  156  163 1   
   162  156  164 1   
   163  157  158 1   
   164  157  165 1   
   165  157  166 1   
   166  158  159 1   
   167  158  160 1   
   168  167  168 1   
   169  167  172 1   
   170  168  169 1   
   171  168  170 1   
   172  168  171 1   
   173  174  175 1   
   174  174  176 1   
   175  177  178 1   
   176  177  179 1   
   177  180  181 1   
   178  180  182 1   
   179  183  184 1   
   180  183  185 1   
   181  186  187 1   
   182  186  188 1   
@<TRIPOS>SUBSTRUCTURE
     1 MOL         1 TEMP              0 ****  ****    0 ROOT
