@<TRIPOS>MOLECULE
MOL
  182   178     1     0     0
SMALL
resp


@<TRIPOS>ATOM
      1 C1          2.5140   -5.2860    5.6340 c3        1 MOL     -0.333739
      2 C2          2.1790   -4.6680    4.1930 c         1 MOL      0.568487
      3 O1          1.3670   -5.1890    3.3680 o         1 MOL     -0.588655
      4 H1          2.1940   -6.3270    5.6660 hc        1 MOL      0.102501
      5 H2          3.5880   -5.2320    5.8130 hc        1 MOL      0.102501
      6 H3          1.9880   -4.7220    6.4030 hc        1 MOL      0.102501
      7 N1          2.9880   -3.7420    3.7420 n         1 MOL     -0.432540
      8 C3          3.1050   -3.1830    2.4040 c3        1 MOL     -0.088464
      9 C4          3.7880   -4.1190    1.3260 c         1 MOL      0.674263
     10 O2          4.9540   -4.4520    1.3590 o         1 MOL     -0.543769
     11 C5          3.7560   -1.7970    2.4400 c3        1 MOL     -0.114891
     12 C6          3.8210   -0.8700    1.2370 c         1 MOL      0.767717
     13 O3          3.8920    0.3570    1.3470 o         1 MOL     -0.723136
     14 O4          3.6970   -1.3970    0.0820 o         1 MOL     -0.723136
     15 H4          3.6230   -3.3790    4.4410 hn        1 MOL      0.282769
     16 H5          2.0870   -2.9570    2.0990 h1        1 MOL      0.203237
     17 H6          4.7510   -1.9220    2.8720 hc        1 MOL      0.031794
     18 H7          3.2690   -1.2010    3.2160 hc        1 MOL      0.031794
     19 N2          2.9590   -4.4490    0.2660 n         1 MOL     -0.406371
     20 C7          3.4470   -5.2720   -0.8480 c3        1 MOL     -0.059235
     21 C8          4.5920   -4.7060   -1.6480 c         1 MOL      0.491487
     22 O5          5.3060   -5.4840   -2.3700 o         1 MOL     -0.568454
     23 C9          2.3240   -5.6680   -1.7800 c3        1 MOL     -0.048252
     24 C10         1.2430   -6.5330   -1.1390 c3        1 MOL     -0.004546
     25 C11         0.2660   -7.2300   -2.1590 c3        1 MOL     -0.085272
     26 C12        -0.8040   -8.1090   -1.4860 c3        1 MOL      0.023211
     27 N3         -0.1880   -9.1040   -0.5360 n4        1 MOL     -0.237768
     28 H8          2.0700   -3.9830    0.1950 hn        1 MOL      0.150973
     29 H9          3.7170   -6.2420   -0.4070 h1        1 MOL      0.087390
     30 H10         2.8250   -6.2360   -2.5560 hc        1 MOL      0.044240
     31 H11         1.8140   -4.8890   -2.3580 hc        1 MOL      0.044240
     32 H12         0.7140   -6.0090   -0.3360 hc        1 MOL      0.029368
     33 H13         1.7510   -7.3080   -0.5740 hc        1 MOL      0.029368
     34 H14         0.8370   -7.8690   -2.8400 hc        1 MOL      0.066922
     35 H15        -0.2090   -6.4260   -2.7110 hc        1 MOL      0.066922
     36 H16        -1.3940   -8.5300   -2.2920 hx        1 MOL      0.074086
     37 H17        -1.4270   -7.4970   -0.8450 hx        1 MOL      0.074086
     38 H18        -0.9760   -9.6690   -0.2310 hn        1 MOL      0.259183
     39 H19         0.4610   -9.7000   -1.0330 hn        1 MOL      0.259183
     40 H20         0.2750   -8.7210    0.2740 hn        1 MOL      0.259183
     41 N4          4.7530   -3.3940   -1.6630 n         1 MOL     -0.294380
     42 C13         5.6090   -2.7440   -2.6690 c3        1 MOL      0.135275
     43 C14         6.6820   -1.9300   -1.9680 c         1 MOL      0.337973
     44 O6          7.7830   -1.7950   -2.5810 o         1 MOL     -0.565459
     45 C15         4.7320   -1.8750   -3.5830 c3        1 MOL     -0.238529
     46 C16         3.8190   -0.8540   -2.9640 c         1 MOL      0.721623
     47 O7          4.2640    0.1310   -2.3750 o         1 MOL     -0.743740
     48 O8          2.5600   -1.0410   -2.9780 o         1 MOL     -0.743740
     49 H21         4.2250   -2.8050   -1.0420 hn        1 MOL      0.283821
     50 H22         6.1160   -3.4600   -3.3150 h1        1 MOL      0.095179
     51 H23         4.1380   -2.5170   -4.2210 hc        1 MOL      0.065985
     52 H24         5.3790   -1.2860   -4.2360 hc        1 MOL      0.065985
     53 N5          6.4560   -1.4520   -0.7610 n         1 MOL     -0.018039
     54 C17         7.4240   -0.8670    0.1320 c3        1 MOL     -0.308107
     55 C18         7.2810    0.7450    0.2240 c         1 MOL      0.498807
     56 O9          8.0200    1.3950    0.9070 o         1 MOL     -0.506101
     57 H25         5.5300   -1.6690   -0.4220 hn        1 MOL      0.061699
     58 H26         8.4240   -1.1910   -0.1770 h1        1 MOL      0.152060
     59 H27         7.2870   -1.3640    1.0890 h1        1 MOL      0.152060
     60 N6          6.4770    1.3640   -0.6540 n         1 MOL     -0.284718
     61 C19         6.3390    2.8390   -0.7280 c3        1 MOL      0.361061
     62 C20         4.9140    3.3320   -0.5560 c         1 MOL      0.429694
     63 O10         3.9550    2.5560   -0.5760 o         1 MOL     -0.511907
     64 C21         7.0020    3.3690   -1.9800 c3        1 MOL     -0.401062
     65 C22         8.5640    3.2860   -1.7650 c         1 MOL      0.630944
     66 N7          9.2440    2.5630   -2.6070 n         1 MOL     -0.757197
     67 O11         9.1440    3.9080   -0.8540 o         1 MOL     -0.532151
     68 H28         5.9140    0.8190   -1.2860 hn        1 MOL      0.223119
     69 H29         6.8760    3.3720    0.0470 h1        1 MOL     -0.037714
     70 H30         6.7460    4.4070   -2.1830 hc        1 MOL      0.086995
     71 H31         6.6730    2.6880   -2.7630 hc        1 MOL      0.086995
     72 H32         8.7110    2.1380   -3.3470 hn        1 MOL      0.379464
     73 H33        10.2440    2.5380   -2.4510 hn        1 MOL      0.379464
     74 N8          4.6760    4.6620   -0.4770 n         1 MOL     -0.308784
     75 C23         3.5050    5.4620   -0.6560 c3        1 MOL     -0.325089
     76 C24         2.4620    5.3120    0.4330 c         1 MOL      0.780100
     77 O12         2.8290    5.4920    1.5550 o         1 MOL     -0.515873
     78 H34         5.5240    5.1850   -0.4050 hn        1 MOL      0.288691
     79 H35         3.0970    5.0750   -1.5860 h1        1 MOL      0.130937
     80 H36         3.8070    6.5040   -0.7490 h1        1 MOL      0.130937
     81 N9          1.2400    5.1300   -0.0490 n         1 MOL     -0.609005
     82 C25         0.0870    4.7700    0.6850 c3        1 MOL      0.041710
     83 C26         0.1340    3.2280    0.9740 c         1 MOL      0.576997
     84 O13         0.6970    2.4410    0.2150 o         1 MOL     -0.535328
     85 C27        -1.2210    5.1910    0.0090 c3        1 MOL     -0.131707
     86 C28        -1.5360    6.6100   -0.2480 ca        1 MOL      0.088008
     87 C29        -1.3160    7.5640    0.7950 ca        1 MOL     -0.116381
     88 C30        -2.2990    7.0280   -1.3330 ca        1 MOL     -0.116381
     89 C31        -1.5540    8.9720    0.5320 ca        1 MOL     -0.352263
     90 C32        -2.5880    8.4090   -1.5610 ca        1 MOL     -0.352263
     91 C33        -2.2120    9.3540   -0.6530 ca        1 MOL      0.451573
     92 O14        -2.6210   10.6430   -0.7760 oh        1 MOL     -0.526147
     93 H37         1.0200    5.0380   -1.0330 hn        1 MOL      0.315543
     94 H38         0.0860    5.1340    1.7130 h1        1 MOL      0.065013
     95 H39        -2.0970    4.8250    0.5470 hc        1 MOL      0.041116
     96 H40        -1.1740    4.6380   -0.9370 hc        1 MOL      0.041116
     97 H41        -0.9390    7.2070    1.7390 ha        1 MOL      0.129543
     98 H42        -2.6610    6.3350   -2.0780 ha        1 MOL      0.129543
     99 H43        -1.4760    9.7520    1.2740 ha        1 MOL      0.177474
    100 H44        -3.2850    8.7360   -2.3320 ha        1 MOL      0.177474
    101 H45        -2.3420   11.2750   -0.1080 ho        1 MOL      0.388502
    102 N10        -0.3610    2.8250    2.1720 n         1 MOL     -0.549059
    103 C34        -0.0320    1.5990    2.9100 c3        1 MOL     -0.055526
    104 C35         0.0400    0.3380    2.0960 c         1 MOL      0.404226
    105 O15         0.9850   -0.0610    1.4690 o         1 MOL     -0.382653
    106 C36         1.3400    1.7970    3.6630 c3        1 MOL      0.311920
    107 C37         1.4820    0.7910    4.7760 c3        1 MOL      0.057888
    108 C38         1.4970    3.2360    4.2970 c3        1 MOL     -0.474861
    109 C39         2.9220    0.6770    5.3720 c3        1 MOL     -0.072712
    110 H46        -0.7900    3.5440    2.7260 hn        1 MOL      0.337552
    111 H47        -0.8470    1.4570    3.6200 h1        1 MOL      0.080628
    112 H48         2.2290    1.6040    3.0580 hc        1 MOL      0.028318
    113 H49         1.2320   -0.1720    4.3180 hc        1 MOL     -0.052713
    114 H50         0.7700    0.9580    5.5820 hc        1 MOL     -0.052713
    115 H51         1.5010    3.9850    3.5080 hc        1 MOL      0.119476
    116 H52         0.7470    3.4050    5.0630 hc        1 MOL      0.119476
    117 H53         2.5110    3.3460    4.6840 hc        1 MOL      0.119476
    118 H54         2.9900   -0.1860    6.0310 hc        1 MOL      0.022067
    119 H55         3.5190    0.4370    4.4890 hc        1 MOL      0.022067
    120 H56         3.3500    1.5700    5.8440 hc        1 MOL      0.022067
    121 N11        -1.1460   -0.3050    2.0810 n         1 MOL     -0.415369
    122 C40        -1.5370   -1.5760    1.3370 c3        1 MOL     -0.020171
    123 C41        -3.0000   -1.7520    0.9410 c         1 MOL      0.701438
    124 O16        -3.6590   -2.7540    1.2350 o         1 MOL     -0.577619
    125 C42        -1.0400   -2.7920    2.0130 c3        1 MOL      0.141649
    126 O17        -0.7020   -3.7420    1.0790 oh        1 MOL     -0.653948
    127 H57        -1.9190    0.1910    2.4930 hn        1 MOL      0.271547
    128 H58        -1.0580   -1.5790    0.3600 h1        1 MOL      0.012949
    129 H59        -1.7690   -3.1020    2.7610 h1        1 MOL      0.053099
    130 H60        -0.1290   -2.6650    2.5980 h1        1 MOL      0.053099
    131 H61        -1.2940   -4.4940    1.0790 ho        1 MOL      0.448142
    132 N12        -3.6070   -0.7890    0.3160 n         1 MOL     -0.598029
    133 C43        -4.9660   -0.7270   -0.1120 c3        1 MOL      0.156318
    134 C44        -5.0710   -0.8110   -1.6570 c         1 MOL      0.592042
    135 O18        -4.0720   -0.7020   -2.3710 o         1 MOL     -0.564946
    136 C45        -5.5510    0.4710    0.4850 c3        1 MOL     -0.153655
    137 H62        -3.0270   -0.0090    0.0490 hn        1 MOL      0.295274
    138 H63        -5.4930   -1.6010    0.2740 h1        1 MOL      0.118891
    139 H64        -5.6280    0.4200    1.5650 hc        1 MOL      0.050022
    140 H65        -4.9470    1.3560    0.2790 hc        1 MOL      0.050022
    141 H66        -6.5520    0.7480    0.1340 hc        1 MOL      0.050022
    142 N13        -6.2200   -1.0940   -2.3150 n         1 MOL     -0.648600
    143 C46        -7.5290   -1.3500   -1.7370 c3        1 MOL      0.372395
    144 C47        -8.6480   -0.5000   -2.2590 c         1 MOL      0.462355
    145 O19        -8.6690   -0.0120   -3.4310 o         1 MOL     -0.542360
    146 C48        -7.9410   -2.8400   -1.9660 c3        1 MOL     -0.231352
    147 H67        -6.2090   -1.0120   -3.3170 hn        1 MOL      0.353945
    148 H68        -7.5790   -1.2740   -0.6410 h1        1 MOL     -0.022153
    149 H69        -8.1320   -3.0640   -3.0120 hc        1 MOL      0.068323
    150 H70        -7.0820   -3.3860   -1.5880 hc        1 MOL      0.068323
    151 H71        -8.7360   -3.2590   -1.3340 hc        1 MOL      0.068323
    152 N14        -9.6620   -0.1430   -1.4120 n         1 MOL     -0.587975
    153 C49        -9.9190   -0.5710   -0.0050 c3        1 MOL     -0.092170
    154 C50        -9.2680    0.3310    1.0260 c         1 MOL      0.396082
    155 O20        -8.8800   -0.0710    2.1120 o         1 MOL     -0.505511
    156 C51       -11.4030   -0.6940    0.1820 c3        1 MOL      0.157473
    157 C52       -12.0890   -1.7470   -0.7000 c3        1 MOL     -0.346080
    158 C53       -13.6110   -1.5130   -0.5790 c         1 MOL      0.717614
    159 O21       -14.2320   -2.0340    0.3340 o         1 MOL     -0.665705
    160 O22       -14.0630   -0.7640   -1.4520 o         1 MOL     -0.665705
    161 H72       -10.4410    0.3150   -1.8740 hn        1 MOL      0.383368
    162 H73        -9.4400   -1.5480    0.0540 h1        1 MOL      0.105006
    163 H74       -11.8730    0.2540   -0.0840 hc        1 MOL      0.022529
    164 H75       -11.6090   -0.9130    1.2300 hc        1 MOL      0.022529
    165 H76       -11.8550   -2.7380   -0.2990 hc        1 MOL      0.069118
    166 H77       -11.6130   -1.7280   -1.6770 hc        1 MOL      0.069118
    167 N15        -9.3280    1.6190    0.7230 n         1 MOL     -0.196655
    168 C54        -8.8580    2.5950    1.7650 c3        1 MOL     -0.449943
    169 H78        -9.2910    3.5750    1.5660 h1        1 MOL      0.171386
    170 H79        -9.1700    2.2530    2.7510 h1        1 MOL      0.171386
    171 H80        -7.7710    2.6670    1.7310 h1        1 MOL      0.171386
    172 H81        -9.5980    1.9180   -0.2090 hn        1 MOL      0.250720
    173 Ca1         2.1770    0.5600   -0.9160 Ca        1 MOL      1.689655
    174 O23        -0.2740    0.2400   -1.6840 oh        1 MOL     -0.803805
    175 H82        -0.4850   -0.5260   -2.2240 ho        1 MOL      0.403216
    176 H83        -1.1180    0.6720   -1.5380 ho        1 MOL      0.403216
    177 O24         0.9000   -2.3900   -0.7350 oh        1 MOL     -0.803805
    178 H84         0.3770   -2.4420   -1.5400 ho        1 MOL      0.403216
    179 H85         0.4030   -2.9030   -0.0910 ho        1 MOL      0.403216
    180 O25         1.4480    2.3180   -2.9510 oh        1 MOL     -0.803805
    181 H86         0.8440    1.9890   -3.6120 ho        1 MOL      0.403216
    182 H87         1.4210    3.2680   -3.0550 ho        1 MOL      0.403216
@<TRIPOS>BOND
     1    1    2 1   
     2    1    4 1   
     3    1    5 1   
     4    1    6 1   
     5    2    3 2   
     6    2    7 1   
     7    7    8 1   
     8    7   15 1   
     9    8    9 1   
    10    8   11 1   
    11    8   16 1   
    12    9   10 2   
    13    9   19 1   
    14   11   12 1   
    15   11   17 1   
    16   11   18 1   
    17   12   13 1   
    18   12   14 1   
    19   19   20 1   
    20   19   28 1   
    21   20   21 1   
    22   20   23 1   
    23   20   29 1   
    24   21   22 2   
    25   21   41 1   
    26   23   24 1   
    27   23   30 1   
    28   23   31 1   
    29   24   25 1   
    30   24   32 1   
    31   24   33 1   
    32   25   26 1   
    33   25   34 1   
    34   25   35 1   
    35   26   27 1   
    36   26   36 1   
    37   26   37 1   
    38   27   38 1   
    39   27   39 1   
    40   27   40 1   
    41   41   42 1   
    42   41   49 1   
    43   42   43 1   
    44   42   45 1   
    45   42   50 1   
    46   43   44 2   
    47   43   53 1   
    48   45   46 1   
    49   45   51 1   
    50   45   52 1   
    51   46   47 1   
    52   46   48 1   
    53   53   54 1   
    54   53   57 1   
    55   54   55 1   
    56   54   58 1   
    57   54   59 1   
    58   55   56 2   
    59   55   60 1   
    60   60   61 1   
    61   60   68 1   
    62   61   62 1   
    63   61   64 1   
    64   61   69 1   
    65   62   63 2   
    66   62   74 1   
    67   64   65 1   
    68   64   70 1   
    69   64   71 1   
    70   65   66 1   
    71   65   67 2   
    72   66   72 1   
    73   66   73 1   
    74   74   75 1   
    75   74   78 1   
    76   75   76 1   
    77   75   79 1   
    78   75   80 1   
    79   76   77 2   
    80   76   81 1   
    81   81   82 1   
    82   81   93 1   
    83   82   83 1   
    84   82   85 1   
    85   82   94 1   
    86   83   84 2   
    87   83  102 1   
    88   85   86 1   
    89   85   95 1   
    90   85   96 1   
    91   86   87 ar  
    92   86   88 ar  
    93   87   89 ar  
    94   87   97 1   
    95   88   90 ar  
    96   88   98 1   
    97   89   91 ar  
    98   89   99 1   
    99   90   91 ar  
   100   90  100 1   
   101   91   92 1   
   102   92  101 1   
   103  102  103 1   
   104  102  110 1   
   105  103  104 1   
   106  103  106 1   
   107  103  111 1   
   108  104  105 2   
   109  104  121 1   
   110  106  107 1   
   111  106  108 1   
   112  106  112 1   
   113  107  109 1   
   114  107  113 1   
   115  107  114 1   
   116  108  115 1   
   117  108  116 1   
   118  108  117 1   
   119  109  118 1   
   120  109  119 1   
   121  109  120 1   
   122  121  122 1   
   123  121  127 1   
   124  122  123 1   
   125  122  125 1   
   126  122  128 1   
   127  123  124 2   
   128  123  132 1   
   129  125  126 1   
   130  125  129 1   
   131  125  130 1   
   132  126  131 1   
   133  132  133 1   
   134  132  137 1   
   135  133  134 1   
   136  133  136 1   
   137  133  138 1   
   138  134  135 2   
   139  134  142 1   
   140  136  139 1   
   141  136  140 1   
   142  136  141 1   
   143  142  143 1   
   144  142  147 1   
   145  143  144 1   
   146  143  146 1   
   147  143  148 1   
   148  144  145 2   
   149  144  152 1   
   150  146  149 1   
   151  146  150 1   
   152  146  151 1   
   153  152  153 1   
   154  152  161 1   
   155  153  154 1   
   156  153  156 1   
   157  153  162 1   
   158  154  155 2   
   159  154  167 1   
   160  156  157 1   
   161  156  163 1   
   162  156  164 1   
   163  157  158 1   
   164  157  165 1   
   165  157  166 1   
   166  158  159 1   
   167  158  160 1   
   168  167  168 1   
   169  167  172 1   
   170  168  169 1   
   171  168  170 1   
   172  168  171 1   
   173  174  175 1   
   174  174  176 1   
   175  177  178 1   
   176  177  179 1   
   177  180  181 1   
   178  180  182 1   
@<TRIPOS>SUBSTRUCTURE
     1 MOL         1 TEMP              0 ****  ****    0 ROOT
