@<TRIPOS>MOLECULE
MOL
  182   178     1     0     0
SMALL
resp


@<TRIPOS>ATOM
      1 C1          0.6030   -3.7030    6.0240 c3        1 MOL     -0.505517
      2 C2          0.6130   -3.6930    4.4930 c         1 MOL      0.726462
      3 O1         -0.3810   -3.4460    3.8380 o         1 MOL     -0.584533
      4 H1          0.4120   -4.7160    6.3790 hc        1 MOL      0.147134
      5 H2          1.5700   -3.3650    6.3960 hc        1 MOL      0.147134
      6 H3         -0.1800   -3.0380    6.3880 hc        1 MOL      0.147134
      7 N1          1.8040   -3.8670    3.8800 n         1 MOL     -0.611385
      8 C3          2.1150   -3.5160    2.4840 c3        1 MOL      0.086032
      9 C4          2.1090   -4.7660    1.6010 c         1 MOL      0.452302
     10 O2          2.0930   -5.9320    2.0950 o         1 MOL     -0.527996
     11 C5          3.5180   -2.8580    2.4700 c3        1 MOL     -0.195540
     12 C6          3.6710   -1.7730    1.4150 c         1 MOL      0.448420
     13 O3          4.1040   -0.6440    1.6360 o         1 MOL     -0.624009
     14 O4          3.3710   -2.0210    0.2730 o         1 MOL     -0.624009
     15 H4          2.5330   -4.0430    4.5500 hn        1 MOL      0.315194
     16 H5          1.3840   -2.8070    2.1200 h1        1 MOL      0.260657
     17 H6          4.2550   -3.6550    2.3770 hc        1 MOL      0.098396
     18 H7          3.6930   -2.3890    3.4490 hc        1 MOL      0.098396
     19 N2          1.9430   -4.5070    0.3110 n         1 MOL     -0.156473
     20 C7          2.0750   -5.4710   -0.8220 c3        1 MOL     -0.128382
     21 C8          3.3610   -5.3540   -1.5920 c         1 MOL      0.536567
     22 O5          3.7950   -6.3680   -2.1840 o         1 MOL     -0.530698
     23 C9          0.8220   -5.3780   -1.6740 c3        1 MOL      0.110969
     24 C10        -0.5240   -5.6850   -0.9760 c3        1 MOL      0.009325
     25 C11        -1.7000   -5.4890   -1.9960 c3        1 MOL      0.100854
     26 C12        -2.8170   -6.5140   -1.5380 c3        1 MOL     -0.097886
     27 N3         -3.7510   -6.8010   -2.6120 n4        1 MOL     -0.332880
     28 H8          2.0280   -3.5550   -0.0050 hn        1 MOL      0.091704
     29 H9          2.2050   -6.4390   -0.3420 h1        1 MOL      0.110290
     30 H10         0.9260   -6.0680   -2.5100 hc        1 MOL     -0.012877
     31 H11         0.7690   -4.4100   -2.1800 hc        1 MOL     -0.012877
     32 H12        -0.7340   -5.0400   -0.1130 hc        1 MOL     -0.014188
     33 H13        -0.4950   -6.7240   -0.6360 hc        1 MOL     -0.014188
     34 H14        -1.2420   -5.6400   -2.9760 hc        1 MOL      0.006597
     35 H15        -2.0410   -4.4570   -1.9640 hc        1 MOL      0.006597
     36 H16        -3.3190   -6.0210   -0.6970 hx        1 MOL      0.135000
     37 H17        -2.4370   -7.5040   -1.2880 hx        1 MOL      0.135000
     38 H18        -3.1460   -6.8490   -3.4220 hn        1 MOL      0.277761
     39 H19        -4.3240   -7.6200   -2.5280 hn        1 MOL      0.277761
     40 H20        -4.4310   -6.0510   -2.6130 hn        1 MOL      0.277761
     41 N4          3.9750   -4.1220   -1.6400 n         1 MOL     -0.375134
     42 C13         5.2430   -3.9140   -2.2960 c3        1 MOL      0.300090
     43 C14         6.4330   -3.5910   -1.3690 c         1 MOL      0.280849
     44 O6          7.4870   -4.2620   -1.4620 o         1 MOL     -0.541216
     45 C15         5.0030   -2.7220   -3.2970 c3        1 MOL     -0.500364
     46 C16         4.4340   -1.4200   -2.8010 c         1 MOL      0.957092
     47 O7          5.0140   -0.6860   -1.9980 o         1 MOL     -0.771218
     48 O8          3.2780   -1.1260   -3.1490 o         1 MOL     -0.771218
     49 H21         3.5440   -3.3160   -1.2150 hn        1 MOL      0.151381
     50 H22         5.4930   -4.8010   -2.8760 h1        1 MOL      0.063453
     51 H23         4.4140   -3.1840   -4.0870 hc        1 MOL      0.114667
     52 H24         6.0060   -2.4690   -3.6520 hc        1 MOL      0.114667
     53 N5          6.2370   -2.7760   -0.3770 n         1 MOL      0.084304
     54 C17         7.1890   -2.4740    0.7500 c3        1 MOL     -0.279354
     55 C18         7.5420   -1.0030    0.7790 c         1 MOL      0.652117
     56 O9          8.1570   -0.5720    1.7650 o         1 MOL     -0.566041
     57 H25         5.3410   -2.3190   -0.2860 hn        1 MOL     -0.031767
     58 H26         8.0670   -3.0950    0.5920 h1        1 MOL      0.140640
     59 H27         6.6560   -2.8120    1.6350 h1        1 MOL      0.140640
     60 N6          7.1590   -0.2130   -0.2380 n         1 MOL     -0.447652
     61 C19         7.5410    1.2390   -0.2360 c3        1 MOL      0.246171
     62 C20         6.3240    2.2340   -0.0790 c         1 MOL      0.266372
     63 O10         5.1860    1.8290   -0.2800 o         1 MOL     -0.316344
     64 C21         8.2160    1.5010   -1.6290 c3        1 MOL     -0.338674
     65 C22         7.2380    1.2860   -2.7550 c         1 MOL      0.666973
     66 N7          7.3910    0.2360   -3.4960 n         1 MOL     -0.754323
     67 O11         6.3390    2.0940   -2.9900 o         1 MOL     -0.583986
     68 H28         6.4680   -0.4030   -0.9550 hn        1 MOL      0.193681
     69 H29         8.3350    1.4170    0.4920 h1        1 MOL      0.041050
     70 H30         9.0530    0.8170   -1.7650 hc        1 MOL      0.103015
     71 H31         8.6630    2.4920   -1.6250 hc        1 MOL      0.103015
     72 H32         7.9870   -0.5320   -3.2090 hn        1 MOL      0.380380
     73 H33         6.8610    0.2300   -4.3480 hn        1 MOL      0.380380
     74 N8          6.5900    3.4520    0.4100 n         1 MOL     -0.328447
     75 C23         5.8000    4.6920    0.3580 c3        1 MOL     -0.108746
     76 C24         4.5020    4.6560    1.1920 c         1 MOL      0.601584
     77 O12         4.5370    4.5820    2.4150 o         1 MOL     -0.497874
     78 H34         7.5290    3.6770    0.7100 hn        1 MOL      0.294379
     79 H35         5.5860    4.8800   -0.6990 h1        1 MOL      0.080121
     80 H36         6.3940    5.5000    0.7650 h1        1 MOL      0.080121
     81 N9          3.4170    4.7690    0.4050 n         1 MOL     -0.624422
     82 C25         2.0190    4.6770    0.8920 c3        1 MOL      0.233965
     83 C26         1.6840    3.1950    1.2020 c         1 MOL      0.735913
     84 O13         2.3560    2.2640    0.7600 o         1 MOL     -0.597360
     85 C27         0.9640    5.2860    0.0010 c3        1 MOL     -0.482790
     86 C28         1.1140    6.7570   -0.4210 ca        1 MOL      0.237066
     87 C29         1.6010    7.7050    0.5420 ca        1 MOL     -0.200873
     88 C30         0.5350    7.2190   -1.5550 ca        1 MOL     -0.200873
     89 C31         1.7350    9.0710    0.2970 ca        1 MOL     -0.268025
     90 C32         0.6160    8.6070   -1.8720 ca        1 MOL     -0.268025
     91 C33         1.2790    9.5110   -0.9710 ca        1 MOL      0.319142
     92 O14         1.4990   10.8610   -1.3080 oh        1 MOL     -0.482483
     93 H37         3.7200    4.6430   -0.5470 hn        1 MOL      0.323561
     94 H38         2.0670    5.1790    1.8640 h1        1 MOL      0.042885
     95 H39        -0.0330    5.1740    0.4260 hc        1 MOL      0.132534
     96 H40         1.0440    4.7620   -0.9550 hc        1 MOL      0.132534
     97 H41         1.8480    7.4300    1.5590 ha        1 MOL      0.153103
     98 H42        -0.1270    6.5750   -2.1100 ha        1 MOL      0.153103
     99 H43         2.2530    9.7520    0.9560 ha        1 MOL      0.172198
    100 H44         0.0970    9.0430   -2.7110 ha        1 MOL      0.172198
    101 H45         1.6470   11.3000   -0.4750 ho        1 MOL      0.360150
    102 N10         0.6390    2.9300    1.9790 n         1 MOL     -0.807507
    103 C34         0.2400    1.6370    2.5770 c3        1 MOL      0.117376
    104 C35         0.0450    0.3830    1.6160 c         1 MOL      0.597057
    105 O15         1.0550   -0.0600    1.0350 o         1 MOL     -0.486075
    106 C36         1.2520    1.2370    3.7430 c3        1 MOL      0.230485
    107 C37         0.8730   -0.0900    4.5310 c3        1 MOL     -0.378426
    108 C38         1.5130    2.3140    4.7950 c3        1 MOL     -0.193116
    109 C39        -0.5450   -0.1880    5.0580 c3        1 MOL     -0.108140
    110 H46         0.1080    3.7270    2.2730 hn        1 MOL      0.388017
    111 H47        -0.7470    1.8070    2.9920 h1        1 MOL      0.037427
    112 H48         2.1920    1.0210    3.2430 hc        1 MOL      0.012933
    113 H49         1.5220   -0.2540    5.3970 hc        1 MOL      0.114959
    114 H50         1.1430   -0.9800    3.9600 hc        1 MOL      0.114959
    115 H51         0.6130    2.7670    5.2040 hc        1 MOL      0.056579
    116 H52         2.1770    1.9400    5.5740 hc        1 MOL      0.056579
    117 H53         2.1050    3.0760    4.2910 hc        1 MOL      0.056579
    118 H54        -0.7350    0.5010    5.8830 hc        1 MOL      0.033233
    119 H55        -1.3220   -0.1320    4.2960 hc        1 MOL      0.033233
    120 H56        -0.7150   -1.2150    5.3870 hc        1 MOL      0.033233
    121 N11        -1.2420   -0.0810    1.4030 n         1 MOL     -0.466569
    122 C40        -1.6020   -1.0280    0.3430 c3        1 MOL     -0.119825
    123 C41        -3.0750   -1.0410   -0.1790 c         1 MOL      0.459685
    124 O16        -3.3950   -1.8420   -1.0700 o         1 MOL     -0.496350
    125 C42        -1.1280   -2.4480    0.6270 c3        1 MOL      0.598985
    126 O17        -1.9710   -3.0040    1.6110 oh        1 MOL     -0.666873
    127 H57        -2.0030    0.3610    1.9040 hn        1 MOL      0.282535
    128 H58        -1.0350   -0.7650   -0.5570 h1        1 MOL      0.098007
    129 H59        -0.0850   -2.5050    0.9640 h1        1 MOL     -0.123523
    130 H60        -1.2790   -2.9850   -0.3090 h1        1 MOL     -0.123523
    131 H61        -1.6230   -2.7260    2.4720 ho        1 MOL      0.398816
    132 N12        -3.9490   -0.1990    0.4120 n         1 MOL     -0.397086
    133 C43        -5.3130    0.0340    0.0570 c3        1 MOL      0.071576
    134 C44        -5.4700    0.6050   -1.4230 c         1 MOL      0.589745
    135 O18        -4.4970    1.1310   -1.9410 o         1 MOL     -0.545046
    136 C45        -5.9090    0.9310    1.1500 c3        1 MOL     -0.203425
    137 H62        -3.6080    0.4990    1.0490 hn        1 MOL      0.259029
    138 H63        -5.7810   -0.9500    0.0900 h1        1 MOL      0.090582
    139 H64        -5.3050    1.7930    1.4200 hc        1 MOL      0.071148
    140 H65        -6.9020    1.2770    0.8480 hc        1 MOL      0.071148
    141 H66        -5.9070    0.3870    2.1010 hc        1 MOL      0.071148
    142 N13        -6.6150    0.5980   -2.1180 n         1 MOL     -0.613216
    143 C46        -7.9300    0.0600   -1.7800 c3        1 MOL      0.521287
    144 C47        -9.0600    0.8460   -2.4890 c         1 MOL      0.376149
    145 O19        -8.9220    1.3300   -3.6100 o         1 MOL     -0.519169
    146 C48        -8.1720   -1.4080   -2.0760 c3        1 MOL     -0.455071
    147 H67        -6.3940    0.7970   -3.0840 hn        1 MOL      0.316228
    148 H68        -8.0800    0.2690   -0.7190 h1        1 MOL     -0.093150
    149 H69        -8.1100   -1.5030   -3.1520 hc        1 MOL      0.120107
    150 H70        -7.3760   -2.0750   -1.7380 hc        1 MOL      0.120107
    151 H71        -9.1120   -1.8530   -1.7460 hc        1 MOL      0.120107
    152 N14       -10.3100    0.9280   -1.9340 n         1 MOL     -0.374758
    153 C49       -10.8020    0.4270   -0.5930 c3        1 MOL     -0.194747
    154 C50       -10.1810    1.3010    0.5670 c         1 MOL      0.599592
    155 O20        -9.6030    0.7980    1.5310 o         1 MOL     -0.554568
    156 C51       -12.3350    0.1870   -0.6160 c3        1 MOL      0.046227
    157 C52       -12.8980   -0.5120    0.6540 c3        1 MOL     -0.297289
    158 C53       -14.3440   -0.7150    0.3650 c         1 MOL      0.732966
    159 O21       -15.1960   -0.0020    0.9590 o         1 MOL     -0.671158
    160 O22       -14.6640   -1.5260   -0.5060 o         1 MOL     -0.671158
    161 H72       -10.9220    1.5340   -2.4600 hn        1 MOL      0.290242
    162 H73       -10.4120   -0.5520   -0.2960 h1        1 MOL      0.122941
    163 H74       -12.4960   -0.6010   -1.3510 hc        1 MOL      0.040430
    164 H75       -12.9100    1.0730   -0.8740 hc        1 MOL      0.040430
    165 H76       -12.6780    0.0260    1.5750 hc        1 MOL      0.067005
    166 H77       -12.4030   -1.4720    0.8110 hc        1 MOL      0.067005
    167 N15       -10.1260    2.5970    0.3580 n         1 MOL     -0.350585
    168 C54        -9.2520    3.5030    1.1730 c3        1 MOL     -0.210516
    169 H78        -9.3300    4.5210    0.7930 h1        1 MOL      0.109069
    170 H79        -9.5740    3.4800    2.2140 h1        1 MOL      0.109069
    171 H80        -8.2170    3.1680    1.1040 h1        1 MOL      0.109069
    172 H81       -10.5310    3.0060   -0.4780 hn        1 MOL      0.276335
    173 Ca1         3.0340    0.3180   -0.8090 Ca        1 MOL      1.773170
    174 O23         3.7360    2.5480   -2.5080 oh        1 MOL     -0.819732
    175 H82         4.6240    2.2570   -2.6930 ho        1 MOL      0.396531
    176 H83         3.8090    3.5070   -2.4570 ho        1 MOL      0.396531
    177 O24         1.0740   -1.2100   -1.9830 oh        1 MOL     -0.819732
    178 H84         1.8840   -1.4000   -2.4530 ho        1 MOL      0.396531
    179 H85         0.4720   -1.8900   -2.2530 ho        1 MOL      0.396531
    180 O25         1.0330    1.9730   -1.9600 oh        1 MOL     -0.819732
    181 H86         0.1540    2.1200   -1.6160 ho        1 MOL      0.396531
    182 H87         1.1670    2.6940   -2.5810 ho        1 MOL      0.396531
@<TRIPOS>BOND
     1    1    2 1   
     2    1    4 1   
     3    1    5 1   
     4    1    6 1   
     5    2    3 2   
     6    2    7 1   
     7    7    8 1   
     8    7   15 1   
     9    8    9 1   
    10    8   11 1   
    11    8   16 1   
    12    9   10 2   
    13    9   19 1   
    14   11   12 1   
    15   11   17 1   
    16   11   18 1   
    17   12   13 1   
    18   12   14 1   
    19   19   20 1   
    20   19   28 1   
    21   20   21 1   
    22   20   23 1   
    23   20   29 1   
    24   21   22 2   
    25   21   41 1   
    26   23   24 1   
    27   23   30 1   
    28   23   31 1   
    29   24   25 1   
    30   24   32 1   
    31   24   33 1   
    32   25   26 1   
    33   25   34 1   
    34   25   35 1   
    35   26   27 1   
    36   26   36 1   
    37   26   37 1   
    38   27   38 1   
    39   27   39 1   
    40   27   40 1   
    41   41   42 1   
    42   41   49 1   
    43   42   43 1   
    44   42   45 1   
    45   42   50 1   
    46   43   44 2   
    47   43   53 1   
    48   45   46 1   
    49   45   51 1   
    50   45   52 1   
    51   46   47 1   
    52   46   48 1   
    53   53   54 1   
    54   53   57 1   
    55   54   55 1   
    56   54   58 1   
    57   54   59 1   
    58   55   56 2   
    59   55   60 1   
    60   60   61 1   
    61   60   68 1   
    62   61   62 1   
    63   61   64 1   
    64   61   69 1   
    65   62   63 2   
    66   62   74 1   
    67   64   65 1   
    68   64   70 1   
    69   64   71 1   
    70   65   66 1   
    71   65   67 2   
    72   66   72 1   
    73   66   73 1   
    74   74   75 1   
    75   74   78 1   
    76   75   76 1   
    77   75   79 1   
    78   75   80 1   
    79   76   77 2   
    80   76   81 1   
    81   81   82 1   
    82   81   93 1   
    83   82   83 1   
    84   82   85 1   
    85   82   94 1   
    86   83   84 2   
    87   83  102 1   
    88   85   86 1   
    89   85   95 1   
    90   85   96 1   
    91   86   87 ar  
    92   86   88 ar  
    93   87   89 ar  
    94   87   97 1   
    95   88   90 ar  
    96   88   98 1   
    97   89   91 ar  
    98   89   99 1   
    99   90   91 ar  
   100   90  100 1   
   101   91   92 1   
   102   92  101 1   
   103  102  103 1   
   104  102  110 1   
   105  103  104 1   
   106  103  106 1   
   107  103  111 1   
   108  104  105 2   
   109  104  121 1   
   110  106  107 1   
   111  106  108 1   
   112  106  112 1   
   113  107  109 1   
   114  107  113 1   
   115  107  114 1   
   116  108  115 1   
   117  108  116 1   
   118  108  117 1   
   119  109  118 1   
   120  109  119 1   
   121  109  120 1   
   122  121  122 1   
   123  121  127 1   
   124  122  123 1   
   125  122  125 1   
   126  122  128 1   
   127  123  124 2   
   128  123  132 1   
   129  125  126 1   
   130  125  129 1   
   131  125  130 1   
   132  126  131 1   
   133  132  133 1   
   134  132  137 1   
   135  133  134 1   
   136  133  136 1   
   137  133  138 1   
   138  134  135 2   
   139  134  142 1   
   140  136  139 1   
   141  136  140 1   
   142  136  141 1   
   143  142  143 1   
   144  142  147 1   
   145  143  144 1   
   146  143  146 1   
   147  143  148 1   
   148  144  145 2   
   149  144  152 1   
   150  146  149 1   
   151  146  150 1   
   152  146  151 1   
   153  152  153 1   
   154  152  161 1   
   155  153  154 1   
   156  153  156 1   
   157  153  162 1   
   158  154  155 2   
   159  154  167 1   
   160  156  157 1   
   161  156  163 1   
   162  156  164 1   
   163  157  158 1   
   164  157  165 1   
   165  157  166 1   
   166  158  159 1   
   167  158  160 1   
   168  167  168 1   
   169  167  172 1   
   170  168  169 1   
   171  168  170 1   
   172  168  171 1   
   173  174  175 1   
   174  174  176 1   
   175  177  178 1   
   176  177  179 1   
   177  180  181 1   
   178  180  182 1   
@<TRIPOS>SUBSTRUCTURE
     1 MOL         1 TEMP              0 ****  ****    0 ROOT
