@<TRIPOS>MOLECULE
MOL
  195   189     1     0     0
SMALL
resp


@<TRIPOS>ATOM
      1 C1         -5.7580   -4.6500    4.3290 c3        1 MOL     -0.368951
      2 C2         -5.1440   -3.7050    3.2750 c         1 MOL      0.755921
      3 O1         -4.6960   -4.1190    2.2610 o         1 MOL     -0.581724
      4 H1         -5.8970   -4.1090    5.2650 hc        1 MOL      0.096063
      5 H2         -6.7220   -5.0140    3.9740 hc        1 MOL      0.096063
      6 H3         -5.0890   -5.4940    4.4950 hc        1 MOL      0.096063
      7 N1         -5.2080   -2.3500    3.4100 n         1 MOL     -0.617126
      8 C3         -5.0290   -1.3640    2.3350 c3        1 MOL      0.452164
      9 C4         -3.5500   -1.0610    2.0370 c         1 MOL      0.243035
     10 O2         -3.1970    0.0360    1.6520 o         1 MOL     -0.409296
     11 C5         -5.7470   -0.0040    2.5840 c3        1 MOL     -0.300003
     12 C6         -7.3050   -0.2910    2.8160 c         1 MOL      0.715896
     13 O3         -7.7130   -0.8020    3.8910 o         1 MOL     -0.671855
     14 O4         -8.1530    0.1170    1.9970 o         1 MOL     -0.671855
     15 H4         -5.6540   -2.0420    4.2670 hn        1 MOL      0.240563
     16 H5         -5.3920   -1.8490    1.4330 h1        1 MOL      0.030664
     17 H6         -5.7300    0.5970    1.6720 hc        1 MOL      0.035777
     18 H7         -5.2960    0.6070    3.3590 hc        1 MOL      0.035777
     19 N2         -2.5210   -1.9390    2.3710 n         1 MOL     -0.338433
     20 C7         -1.0750   -1.6020    2.4570 c3        1 MOL     -0.028728
     21 C8         -0.3070   -2.6080    1.6140 c         1 MOL      0.528231
     22 O5         -0.3980   -3.8440    1.8800 o         1 MOL     -0.529003
     23 C9         -0.4860   -1.6330    3.8570 c3        1 MOL     -0.262216
     24 C10        -0.9370   -0.4260    4.6670 c3        1 MOL      0.013498
     25 C11         0.0920   -0.0820    5.7060 c3        1 MOL     -0.000068
     26 C12         0.5830   -1.1630    6.6260 c3        1 MOL      0.045627
     27 N3         -0.3600   -1.5440    7.6700 n4        1 MOL     -0.312789
     28 H8         -2.7160   -2.8790    2.6920 hn        1 MOL      0.227874
     29 H9         -0.9600   -0.5750    2.1390 h1        1 MOL      0.239736
     30 H10         0.5990   -1.6920    3.8230 hc        1 MOL      0.083948
     31 H11        -0.9270   -2.4860    4.3860 hc        1 MOL      0.083948
     32 H12        -1.8340   -0.6880    5.2360 hc        1 MOL      0.004685
     33 H13        -0.9480    0.5210    4.1350 hc        1 MOL      0.004685
     34 H14        -0.2960    0.6850    6.3740 hc        1 MOL      0.033979
     35 H15         0.9850    0.2410    5.1810 hc        1 MOL      0.033979
     36 H16         1.4870   -0.8260    7.1240 hx        1 MOL      0.079023
     37 H17         0.8000   -2.0920    6.0950 hx        1 MOL      0.079023
     38 H18        -0.7790   -0.8160    8.2340 hn        1 MOL      0.295903
     39 H19        -1.1380   -1.9850    7.2010 hn        1 MOL      0.295903
     40 H20         0.0720   -2.2510    8.2490 hn        1 MOL      0.295903
     41 N4          0.5430   -2.2240    0.6580 n         1 MOL     -0.424771
     42 C13         1.0920   -0.8740    0.3120 c3        1 MOL     -0.016149
     43 C14         1.4870    0.0210    1.5050 c         1 MOL      0.025357
     44 O6          0.7790    1.0160    1.9110 o         1 MOL     -0.443898
     45 C15         0.0910   -0.0890   -0.6210 c3        1 MOL      0.153741
     46 C16        -0.0630   -0.8340   -1.9700 c         1 MOL      0.468486
     47 O7         -0.7820   -0.4110   -2.8660 o         1 MOL     -0.686606
     48 O8          0.6500   -1.8420   -2.1770 o         1 MOL     -0.686606
     49 H21         0.8700   -2.8740   -0.0370 hn        1 MOL      0.238361
     50 H22         1.9490   -1.0110   -0.3430 h1        1 MOL      0.106363
     51 H23         0.6250    0.8410   -0.8230 hc        1 MOL      0.043476
     52 H24        -0.8690    0.0890   -0.1350 hc        1 MOL      0.043476
     53 N5          2.5600   -0.3650    2.1960 n         1 MOL     -0.008354
     54 C17         3.5470   -1.3970    1.7960 c3        1 MOL     -0.041687
     55 C18         4.6640   -1.6230    2.8920 c         1 MOL      0.438482
     56 O9          4.5180   -1.0610    3.9920 o         1 MOL     -0.549710
     57 H25         2.8210    0.0180    3.0920 hn        1 MOL      0.221906
     58 H26         4.0490   -1.1060    0.8750 h1        1 MOL      0.045920
     59 H27         2.9580   -2.2710    1.5300 h1        1 MOL      0.045920
     60 N6          5.8250   -2.2610    2.6110 n         1 MOL     -0.168143
     61 C19         6.0230   -3.0110    1.3630 c3        1 MOL     -0.440119
     62 C20         6.5900   -2.0860    0.1670 c         1 MOL      0.625556
     63 O10         7.0110   -0.9290    0.3150 o         1 MOL     -0.457054
     64 C21         6.9530   -4.2020    1.6580 c3        1 MOL     -0.042789
     65 C22         8.4090   -3.6820    1.7790 c         1 MOL      0.699074
     66 O11         8.7390   -3.1250    2.8640 o         1 MOL     -0.677759
     67 O12         9.2210   -3.9440    0.8820 o         1 MOL     -0.677759
     68 H28         6.6450   -2.2590    3.2030 hn        1 MOL      0.244162
     69 H29         5.0040   -3.3080    1.1240 h1        1 MOL      0.137978
     70 H30         6.9820   -4.9890    0.9020 hc        1 MOL      0.012848
     71 H31         6.6780   -4.6470    2.6110 hc        1 MOL      0.012848
     72 N7          6.4830   -2.5900   -1.0670 n         1 MOL     -0.385341
     73 C23         6.9670   -1.9610   -2.3260 c3        1 MOL     -0.207725
     74 C24         6.6920   -0.5130   -2.6710 c         1 MOL      0.547265
     75 O13         7.5260    0.2250   -3.1890 o         1 MOL     -0.490342
     76 H32         6.1140   -3.5260   -1.0530 hn        1 MOL      0.300056
     77 H33         6.5550   -2.6160   -3.1020 h1        1 MOL      0.125899
     78 H34         8.0420   -2.1630   -2.3280 h1        1 MOL      0.125899
     79 N8          5.4860    0.0080   -2.2030 n         1 MOL     -0.409590
     80 C25         5.2550    1.4330   -2.0160 c3        1 MOL     -0.102699
     81 C26         4.4320    1.6630   -0.7470 c         1 MOL      0.454161
     82 O14         3.3630    1.0440   -0.5850 o         1 MOL     -0.394607
     83 C27         4.6200    2.1860   -3.2110 c3        1 MOL      0.059997
     84 C28         5.4360    2.0790   -4.5320 c3        1 MOL     -0.437582
     85 O15         4.3790    3.4680   -2.8530 oh        1 MOL     -0.469837
     86 H35         4.9270   -0.7140   -1.7780 hn        1 MOL      0.210270
     87 H36         6.2240    1.9210   -1.9160 h1        1 MOL      0.155920
     88 H37         3.6410    1.7360   -3.3730 h1        1 MOL      0.103563
     89 H38         5.2100    3.9440   -2.9320 ho        1 MOL      0.383385
     90 H39         6.5020    2.1750   -4.2980 hc        1 MOL      0.136859
     91 H40         5.3270    1.1000   -4.9880 hc        1 MOL      0.136859
     92 H41         5.0500    2.8740   -5.1710 hc        1 MOL      0.136859
     93 N9          4.8310    2.6050    0.1010 n         1 MOL     -0.388342
     94 C29         4.1030    3.0600    1.2920 c3        1 MOL      0.010327
     95 C30         2.9000    3.9830    1.0520 c         1 MOL      0.264660
     96 O16         2.5100    4.8550    1.9070 o         1 MOL     -0.483237
     97 C31         5.0040    3.7240    2.4020 c3        1 MOL     -0.009489
     98 C32         6.0340    4.7120    1.8680 c3        1 MOL      0.359120
     99 C33         5.7800    2.6540    3.1740 c3        1 MOL     -0.241591
    100 C34         5.6400    5.8050    0.9620 c3        1 MOL     -0.360908
    101 H42         5.7660    2.9330   -0.0750 hn        1 MOL      0.275764
    102 H43         3.6210    2.1690    1.6960 h1        1 MOL      0.110881
    103 H44         4.3240    4.2650    3.0620 hc        1 MOL      0.050932
    104 H45         6.8380    4.1680    1.3800 hc        1 MOL     -0.064375
    105 H46         6.4980    5.1140    2.7710 hc        1 MOL     -0.064375
    106 H47         6.2550    1.8300    2.6450 hc        1 MOL      0.059225
    107 H48         6.5200    3.0760    3.8570 hc        1 MOL      0.059225
    108 H49         5.0740    2.1120    3.8100 hc        1 MOL      0.059225
    109 H50         6.4480    6.5300    0.8860 hc        1 MOL      0.073711
    110 H51         5.3400    5.4330   -0.0190 hc        1 MOL      0.073711
    111 H52         4.7820    6.2700    1.4370 hc        1 MOL      0.073711
    112 N10         2.3050    3.8870   -0.1070 n         1 MOL      0.077224
    113 C35         1.2570    4.8800   -0.3800 c3        1 MOL     -0.446093
    114 C36        -0.2060    4.6020    0.0680 c         1 MOL      0.563647
    115 O17        -1.0550    5.4170   -0.1210 o         1 MOL     -0.562152
    116 C37         1.3860    5.2070   -1.9160 c3        1 MOL      0.479484
    117 C38         1.0320    4.0190   -2.7630 c3        1 MOL     -0.364866
    118 O18         2.5980    5.7050   -2.2680 oh        1 MOL     -0.660137
    119 H53         2.4750    3.0860   -0.7030 hn        1 MOL      0.130122
    120 H54         1.4570    5.8850   -0.0010 h1        1 MOL      0.183686
    121 H55         0.6150    5.9330   -2.1610 h1        1 MOL      0.034418
    122 H56         3.2530    5.0070   -2.2600 ho        1 MOL      0.366047
    123 H57         1.1020    4.4380   -3.7580 hc        1 MOL      0.089477
    124 H58         1.7750    3.2320   -2.5970 hc        1 MOL      0.089477
    125 H59        -0.0260    3.7690   -2.7000 hc        1 MOL      0.089477
    126 N11        -0.5200    3.4240    0.5990 n         1 MOL     -0.400352
    127 C39        -1.8890    2.9210    0.7390 c3        1 MOL      0.346865
    128 C40        -2.5440    2.7940   -0.6080 c         1 MOL      0.227102
    129 O19        -2.1320    3.3570   -1.6210 o         1 MOL     -0.447881
    130 C41        -2.6660    3.6410    1.8290 c3        1 MOL      0.336244
    131 C42        -2.1000    3.6010    3.2130 c3        1 MOL     -0.194883
    132 O20        -3.9960    3.2790    2.0900 oh        1 MOL     -0.654484
    133 H60         0.1820    2.7480    0.8540 hn        1 MOL      0.222250
    134 H61        -1.7500    1.9490    1.2120 h1        1 MOL     -0.081855
    135 H62        -2.7480    4.6680    1.4580 h1        1 MOL      0.024188
    136 H63        -3.9630    2.7800    2.9060 ho        1 MOL      0.401898
    137 H64        -2.7840    4.1300    3.8790 hc        1 MOL      0.039703
    138 H65        -2.0700    2.5350    3.4680 hc        1 MOL      0.039703
    139 H66        -1.1070    4.0610    3.1990 hc        1 MOL      0.039703
    140 N12        -3.5980    1.9330   -0.6610 n         1 MOL     -0.252861
    141 C43        -4.6560    1.8900   -1.7110 c3        1 MOL      0.024892
    142 C44        -5.0370    0.5010   -2.2280 c         1 MOL      0.580720
    143 O21        -5.7780    0.3300   -3.2040 o         1 MOL     -0.638093
    144 C45        -5.9750    2.5610   -1.2320 c3        1 MOL     -0.102307
    145 C46        -5.9270    4.0920   -1.1160 c3        1 MOL      0.257805
    146 C47        -7.1580    4.9200   -0.9020 c3        1 MOL     -0.210597
    147 C48        -8.1510    5.1070   -2.0420 c3        1 MOL     -0.024964
    148 N13        -7.5730    5.8150   -3.2300 n4        1 MOL     -0.334955
    149 H67        -3.7570    1.5650    0.2680 hn        1 MOL      0.301906
    150 H68        -4.3680    2.4560   -2.5860 h1        1 MOL      0.053683
    151 H69        -6.2620    2.1100   -0.2820 hc        1 MOL      0.048554
    152 H70        -6.7140    2.3630   -2.0040 hc        1 MOL      0.048554
    153 H71        -5.4330    4.5040   -2.0040 hc        1 MOL     -0.043236
    154 H72        -5.2740    4.3170   -0.2680 hc        1 MOL     -0.043236
    155 H73        -6.8870    5.9210   -0.5600 hc        1 MOL      0.094614
    156 H74        -7.7390    4.4570   -0.1060 hc        1 MOL      0.094614
    157 H75        -8.9860    5.6870   -1.6510 hx        1 MOL      0.107746
    158 H76        -8.5000    4.1280   -2.3840 hx        1 MOL      0.107746
    159 H77        -8.2390    5.9500   -3.9690 hn        1 MOL      0.316692
    160 H78        -7.2790    6.7470   -2.9860 hn        1 MOL      0.316692
    161 H79        -6.8050    5.2900   -3.6290 hn        1 MOL      0.316692
    162 N14        -4.6600   -0.5090   -1.4330 n         1 MOL     -0.271882
    163 C49        -4.7580   -1.9230   -1.7790 c3        1 MOL      0.157974
    164 C50        -6.1040   -2.5670   -1.6670 c         1 MOL      0.283977
    165 O22        -6.7000   -2.6020   -0.5660 o         1 MOL     -0.479917
    166 C51        -3.7400   -2.6500   -0.9200 c3        1 MOL      0.405086
    167 C52        -3.4230   -4.0700   -1.2660 c3        1 MOL     -0.390989
    168 C53        -3.0440   -4.3620   -2.7340 c         1 MOL      0.697460
    169 O23        -3.9440   -4.6890   -3.5710 o         1 MOL     -0.774386
    170 O24        -1.8730   -4.1220   -3.0780 o         1 MOL     -0.774386
    171 H80        -4.3210   -0.2170   -0.5300 hn        1 MOL     -0.023593
    172 H81        -4.5420   -1.9830   -2.8480 h1        1 MOL      0.022713
    173 H82        -4.0770   -2.6900    0.1220 hc        1 MOL     -0.071140
    174 H83        -2.7890   -2.1180   -1.0300 hc        1 MOL     -0.071140
    175 H84        -4.3680   -4.5780   -1.0500 hc        1 MOL      0.099549
    176 H85        -2.6380   -4.4100   -0.6000 hc        1 MOL      0.099549
    177 N15        -6.5130   -3.2190   -2.7620 n         1 MOL     -0.102387
    178 C54        -7.8230   -3.8460   -2.8860 c3        1 MOL     -0.225378
    179 H86        -8.4190   -3.6200   -2.0010 h1        1 MOL      0.095031
    180 H87        -8.3290   -3.4620   -3.7720 h1        1 MOL      0.095031
    181 H88        -7.7020   -4.9250   -2.9750 h1        1 MOL      0.095031
    182 H89        -5.9730   -3.0810   -3.6060 hn        1 MOL      0.276131
    183 Ca1         0.5390   -3.7590   -3.8000 Ca        1 MOL      1.748858
    184 O25         1.2900   -3.9670   -6.3640 oh        1 MOL     -0.873855
    185 H90         1.7110   -4.6160   -6.9310 ho        1 MOL      0.435460
    186 H91         0.7790   -3.4270   -6.9700 ho        1 MOL      0.435460
    187 O26        -0.8140   -2.0190   -4.9560 oh        1 MOL     -0.873855
    188 H92        -0.9010   -1.3640   -4.2760 ho        1 MOL      0.435460
    189 H93        -1.4940   -1.7860   -5.5960 ho        1 MOL      0.435460
    190 O27         2.4950   -1.8460   -4.1540 oh        1 MOL     -0.873855
    191 H94         3.1020   -1.8040   -4.8870 ho        1 MOL      0.435460
    192 H95         2.2130   -0.9300   -4.0200 ho        1 MOL      0.435460
    193 O28         3.1180   -4.8180   -3.7730 oh        1 MOL     -0.873855
    194 H96         3.5730   -4.7260   -4.6100 ho        1 MOL      0.435460
    195 H97         3.8220   -4.8190   -3.1200 ho        1 MOL      0.435460
@<TRIPOS>BOND
     1    1    2 1   
     2    1    4 1   
     3    1    5 1   
     4    1    6 1   
     5    2    3 2   
     6    2    7 1   
     7    7    8 1   
     8    7   15 1   
     9    8    9 1   
    10    8   11 1   
    11    8   16 1   
    12    9   10 2   
    13    9   19 1   
    14   11   12 1   
    15   11   17 1   
    16   11   18 1   
    17   12   13 1   
    18   12   14 1   
    19   19   20 1   
    20   19   28 1   
    21   20   21 1   
    22   20   23 1   
    23   20   29 1   
    24   21   22 2   
    25   21   41 1   
    26   23   24 1   
    27   23   30 1   
    28   23   31 1   
    29   24   25 1   
    30   24   32 1   
    31   24   33 1   
    32   25   26 1   
    33   25   34 1   
    34   25   35 1   
    35   26   27 1   
    36   26   36 1   
    37   26   37 1   
    38   27   38 1   
    39   27   39 1   
    40   27   40 1   
    41   41   42 1   
    42   41   49 1   
    43   42   43 1   
    44   42   45 1   
    45   42   50 1   
    46   43   44 2   
    47   43   53 1   
    48   45   46 1   
    49   45   51 1   
    50   45   52 1   
    51   46   47 1   
    52   46   48 1   
    53   53   54 1   
    54   53   57 1   
    55   54   55 1   
    56   54   58 1   
    57   54   59 1   
    58   55   56 2   
    59   55   60 1   
    60   60   61 1   
    61   60   68 1   
    62   61   62 1   
    63   61   64 1   
    64   61   69 1   
    65   62   63 2   
    66   62   72 1   
    67   64   65 1   
    68   64   70 1   
    69   64   71 1   
    70   65   66 1   
    71   65   67 1   
    72   72   73 1   
    73   72   76 1   
    74   73   74 1   
    75   73   77 1   
    76   73   78 1   
    77   74   75 2   
    78   74   79 1   
    79   79   80 1   
    80   79   86 1   
    81   80   81 1   
    82   80   83 1   
    83   80   87 1   
    84   81   82 2   
    85   81   93 1   
    86   83   84 1   
    87   83   85 1   
    88   83   88 1   
    89   84   90 1   
    90   84   91 1   
    91   84   92 1   
    92   85   89 1   
    93   93   94 1   
    94   93  101 1   
    95   94   95 1   
    96   94   97 1   
    97   94  102 1   
    98   95   96 2   
    99   95  112 1   
   100   97   98 1   
   101   97   99 1   
   102   97  103 1   
   103   98  100 1   
   104   98  104 1   
   105   98  105 1   
   106   99  106 1   
   107   99  107 1   
   108   99  108 1   
   109  100  109 1   
   110  100  110 1   
   111  100  111 1   
   112  112  113 1   
   113  112  119 1   
   114  113  114 1   
   115  113  116 1   
   116  113  120 1   
   117  114  115 2   
   118  114  126 1   
   119  116  117 1   
   120  116  118 1   
   121  116  121 1   
   122  117  123 1   
   123  117  124 1   
   124  117  125 1   
   125  118  122 1   
   126  126  127 1   
   127  126  133 1   
   128  127  128 1   
   129  127  130 1   
   130  127  134 1   
   131  128  129 2   
   132  128  140 1   
   133  130  131 1   
   134  130  132 1   
   135  130  135 1   
   136  131  137 1   
   137  131  138 1   
   138  131  139 1   
   139  132  136 1   
   140  140  141 1   
   141  140  149 1   
   142  141  142 1   
   143  141  144 1   
   144  141  150 1   
   145  142  143 2   
   146  142  162 1   
   147  144  145 1   
   148  144  151 1   
   149  144  152 1   
   150  145  146 1   
   151  145  153 1   
   152  145  154 1   
   153  146  147 1   
   154  146  155 1   
   155  146  156 1   
   156  147  148 1   
   157  147  157 1   
   158  147  158 1   
   159  148  159 1   
   160  148  160 1   
   161  148  161 1   
   162  162  163 1   
   163  162  171 1   
   164  163  164 1   
   165  163  166 1   
   166  163  172 1   
   167  164  165 2   
   168  164  177 1   
   169  166  167 1   
   170  166  173 1   
   171  166  174 1   
   172  167  168 1   
   173  167  175 1   
   174  167  176 1   
   175  168  169 1   
   176  168  170 1   
   177  177  178 1   
   178  177  182 1   
   179  178  179 1   
   180  178  180 1   
   181  178  181 1   
   182  184  185 1   
   183  184  186 1   
   184  187  188 1   
   185  187  189 1   
   186  190  191 1   
   187  190  192 1   
   188  193  194 1   
   189  193  195 1   
@<TRIPOS>SUBSTRUCTURE
     1 MOL         1 TEMP              0 ****  ****    0 ROOT
