@<TRIPOS>MOLECULE
MOL
  182   178     1     0     0
SMALL
resp


@<TRIPOS>ATOM
      1 C1          0.6260   -3.5210    6.3950 c3        1 MOL     -0.447572
      2 C2          0.8150   -3.4350    4.9050 c         1 MOL      0.800327
      3 O1         -0.1550   -3.4910    4.1510 o         1 MOL     -0.620438
      4 H1          0.0390   -2.6690    6.7360 hc        1 MOL      0.122701
      5 H2          0.1020   -4.4440    6.6420 hc        1 MOL      0.122701
      6 H3          1.5980   -3.5120    6.8860 hc        1 MOL      0.122701
      7 N1          1.9940   -3.2190    4.3850 n         1 MOL     -0.569353
      8 C3          2.1950   -2.9520    2.9350 c3        1 MOL     -0.058052
      9 C4          2.2140   -4.2880    2.1340 c         1 MOL      0.694358
     10 O2          2.5050   -5.3430    2.6800 o         1 MOL     -0.548278
     11 C5          3.4880   -2.1510    2.7940 c3        1 MOL     -0.100017
     12 C6          3.6730   -1.4900    1.4150 c         1 MOL      0.614429
     13 O3          4.0100   -0.2610    1.3630 o         1 MOL     -0.739678
     14 O4          3.3400   -2.0130    0.3640 o         1 MOL     -0.739678
     15 H4          2.8280   -3.0670    4.9220 hn        1 MOL      0.319621
     16 H5          1.4070   -2.2530    2.6550 h1        1 MOL      0.003140
     17 H6          4.3480   -2.7870    2.9770 hc        1 MOL      0.061095
     18 H7          3.4980   -1.3690    3.5570 hc        1 MOL      0.061095
     19 N2          1.7980   -4.1970    0.8520 n         1 MOL     -0.465017
     20 C7          1.7610   -5.2640   -0.2100 c3        1 MOL     -0.047679
     21 C8          2.9620   -5.3530   -1.2140 c         1 MOL      0.507888
     22 O5          3.1990   -6.3070   -1.9660 o         1 MOL     -0.566446
     23 C9          0.2990   -5.3260   -0.8380 c3        1 MOL      0.064486
     24 C10         0.2490   -6.0100   -2.1960 c3        1 MOL     -0.076733
     25 C11        -1.1270   -6.3740   -2.8500 c3        1 MOL     -0.058488
     26 C12        -2.1410   -7.2130   -1.9230 c3        1 MOL      0.054042
     27 N3         -3.3120   -7.4180   -2.7700 n4        1 MOL     -0.332549
     28 H8          1.7060   -3.2740    0.4650 hn        1 MOL      0.366647
     29 H9          1.7120   -6.2120    0.3270 h1        1 MOL      0.095239
     30 H10         0.0050   -4.2850   -0.9580 hc        1 MOL     -0.013479
     31 H11        -0.4280   -5.7250   -0.1310 hc        1 MOL     -0.013479
     32 H12         0.7700   -6.9590   -2.0770 hc        1 MOL      0.053398
     33 H13         0.7710   -5.3950   -2.9330 hc        1 MOL      0.053398
     34 H14        -0.8610   -6.9830   -3.7090 hc        1 MOL      0.037247
     35 H15        -1.6140   -5.4310   -3.1040 hc        1 MOL      0.037247
     36 H16        -2.4280   -6.6340   -1.0420 hx        1 MOL      0.093948
     37 H17        -1.7590   -8.1950   -1.6600 hx        1 MOL      0.093948
     38 H18        -4.0150   -7.9780   -2.3150 hn        1 MOL      0.294645
     39 H19        -3.7800   -6.5320   -2.8670 hn        1 MOL      0.294645
     40 H20        -3.0480   -7.8320   -3.6570 hn        1 MOL      0.294645
     41 N4          3.8220   -4.3930   -1.0530 n         1 MOL     -0.251381
     42 C13         5.1170   -4.1940   -1.8170 c3        1 MOL      0.147365
     43 C14         6.2400   -3.7820   -0.9350 c         1 MOL      0.439882
     44 O6          7.3970   -4.1810   -1.1990 o         1 MOL     -0.523676
     45 C15         4.8210   -3.2970   -3.0750 c3        1 MOL     -0.356931
     46 C16         4.2940   -1.8950   -2.7330 c         1 MOL      0.842733
     47 O7          4.9480   -1.2100   -1.8810 o         1 MOL     -0.773941
     48 O8          3.1860   -1.4080   -3.0790 o         1 MOL     -0.773941
     49 H21         3.5020   -3.6230   -0.4900 hn        1 MOL      0.071395
     50 H22         5.3970   -5.1980   -2.1290 h1        1 MOL      0.094751
     51 H23         4.0580   -3.8600   -3.5980 hc        1 MOL      0.108220
     52 H24         5.7520   -3.2400   -3.6470 hc        1 MOL      0.108220
     53 N5          6.0100   -3.0150    0.1610 n         1 MOL     -0.328226
     54 C17         7.0340   -2.4730    1.0340 c3        1 MOL      0.078339
     55 C18         7.6950   -1.1820    0.6340 c         1 MOL      0.465667
     56 O9          8.8330   -0.9710    1.0550 o         1 MOL     -0.561280
     57 H25         5.0500   -2.6930    0.2070 hn        1 MOL      0.184061
     58 H26         7.8360   -3.2000    1.1890 h1        1 MOL      0.052413
     59 H27         6.6150   -2.3950    2.0490 h1        1 MOL      0.052413
     60 N6          7.0910   -0.3850   -0.2490 n         1 MOL     -0.227479
     61 C19         7.5340    0.9730   -0.6320 c3        1 MOL      0.140220
     62 C20         6.3630    1.9950   -0.6870 c         1 MOL      0.158231
     63 O10         5.1990    1.5710   -0.6160 o         1 MOL     -0.274496
     64 C21         8.1670    0.9130   -2.0540 c3        1 MOL     -0.303215
     65 C22         7.3930    1.5120   -3.2100 c         1 MOL      0.664792
     66 N7          6.3280    0.7960   -3.6770 n         1 MOL     -0.809159
     67 O11         7.5830    2.5820   -3.7260 o         1 MOL     -0.556988
     68 H28         6.1740   -0.6420   -0.5820 hn        1 MOL      0.244569
     69 H29         8.3340    1.2220    0.0650 h1        1 MOL      0.078423
     70 H30         8.5650   -0.0670   -2.3080 hc        1 MOL      0.105274
     71 H31         9.0340    1.5690   -1.9760 hc        1 MOL      0.105274
     72 H32         6.1830   -0.1370   -3.3300 hn        1 MOL      0.358527
     73 H33         5.5410    1.2730   -4.0980 hn        1 MOL      0.358527
     74 N8          6.6280    3.2930   -0.5840 n         1 MOL     -0.273480
     75 C23         5.6170    4.4090   -0.7610 c3        1 MOL     -0.218569
     76 C24         4.4490    4.4060    0.2290 c         1 MOL      0.672794
     77 O12         4.6760    4.1530    1.3860 o         1 MOL     -0.496454
     78 H34         7.5870    3.5340   -0.3840 hn        1 MOL      0.297487
     79 H35         5.2280    4.3670   -1.7810 h1        1 MOL      0.120651
     80 H36         6.1580    5.3420   -0.6170 h1        1 MOL      0.120651
     81 N9          3.2310    4.8350   -0.2130 n         1 MOL     -0.635378
     82 C25         1.9920    4.7200    0.5500 c3        1 MOL      0.059031
     83 C26         1.6440    3.2280    0.8720 c         1 MOL      0.806501
     84 O13         2.1930    2.2750    0.4460 o         1 MOL     -0.592758
     85 C27         0.8790    5.5400   -0.1060 c3        1 MOL     -0.280342
     86 C28         1.0740    7.0680   -0.2820 ca        1 MOL      0.167656
     87 C29         1.5530    7.9530    0.7320 ca        1 MOL     -0.168472
     88 C30         0.7110    7.7000   -1.4780 ca        1 MOL     -0.168472
     89 C31         1.7510    9.3020    0.5180 ca        1 MOL     -0.246449
     90 C32         0.7770    9.0770   -1.7010 ca        1 MOL     -0.246449
     91 C33         1.3810    9.8370   -0.7560 ca        1 MOL      0.306551
     92 O14         1.4080   11.2000   -0.9490 oh        1 MOL     -0.463692
     93 H37         3.1830    5.0130   -1.2110 hn        1 MOL      0.298322
     94 H38         2.2740    5.2140    1.4790 h1        1 MOL      0.109919
     95 H39        -0.0520    5.4460    0.4500 hc        1 MOL      0.084139
     96 H40         0.8240    5.0540   -1.0710 hc        1 MOL      0.084139
     97 H41         1.7530    7.5680    1.7280 ha        1 MOL      0.122173
     98 H42         0.4970    7.0820   -2.3380 ha        1 MOL      0.122173
     99 H43         2.1410    9.9590    1.2730 ha        1 MOL      0.169167
    100 H44         0.4800    9.4970   -2.6490 ha        1 MOL      0.169167
    101 H45         1.6340   11.5730   -0.0930 ho        1 MOL      0.354098
    102 N10         0.7470    3.1410    1.8880 n         1 MOL     -0.845059
    103 C34         0.2700    1.9260    2.5510 c3        1 MOL      0.290848
    104 C35        -0.0080    0.7100    1.5770 c         1 MOL      0.131971
    105 O15         0.9370   -0.0810    1.2250 o         1 MOL     -0.318959
    106 C36         1.0970    1.5490    3.8260 c3        1 MOL     -0.018504
    107 C37         0.6310    0.2440    4.4830 c3        1 MOL     -0.233328
    108 C38         1.1740    2.6160    4.7650 c3        1 MOL     -0.341319
    109 C39        -0.6320    0.3160    5.3790 c3        1 MOL     -0.421206
    110 H46         0.3600    3.9910    2.2620 hn        1 MOL      0.391128
    111 H47        -0.6940    2.1730    2.9860 h1        1 MOL      0.066289
    112 H48         2.0980    1.4950    3.3980 hc        1 MOL      0.135610
    113 H49         1.4290   -0.0710    5.1660 hc        1 MOL      0.141102
    114 H50         0.4480   -0.6010    3.8260 hc        1 MOL      0.141102
    115 H51         0.2860    3.2370    4.8890 hc        1 MOL      0.102749
    116 H52         1.4690    2.1880    5.7250 hc        1 MOL      0.102749
    117 H53         1.9650    3.3190    4.4910 hc        1 MOL      0.102749
    118 H54        -0.9830   -0.6040    5.8520 hc        1 MOL      0.122675
    119 H55        -0.4640    0.9780    6.2290 hc        1 MOL      0.122675
    120 H56        -1.4670    0.5540    4.7110 hc        1 MOL      0.122675
    121 N11        -1.2610    0.4810    1.1690 n         1 MOL      0.039050
    122 C40        -1.7650   -0.6610    0.4100 c3        1 MOL     -0.616660
    123 C41        -3.2010   -0.5430   -0.0780 c         1 MOL      0.829989
    124 O16        -3.5410   -1.0390   -1.1550 o         1 MOL     -0.572542
    125 C42        -1.5660   -1.9420    1.2160 c3        1 MOL      0.322814
    126 O17        -2.1570   -1.8920    2.5520 oh        1 MOL     -0.655115
    127 H57        -1.9790    1.1150    1.4980 hn        1 MOL      0.139550
    128 H58        -1.1060   -0.7020   -0.4550 h1        1 MOL      0.192866
    129 H59        -0.5120   -2.1910    1.3150 h1        1 MOL      0.023528
    130 H60        -1.9820   -2.8480    0.7800 h1        1 MOL      0.023528
    131 H61        -1.5190   -2.1660    3.2160 ho        1 MOL      0.423091
    132 N12        -4.0830    0.2060    0.6130 n         1 MOL     -0.664783
    133 C43        -5.4910    0.1850    0.2820 c3        1 MOL      0.236241
    134 C44        -5.7340    0.8120   -1.1000 c         1 MOL      0.605351
    135 O18        -4.9140    1.6210   -1.4980 o         1 MOL     -0.576250
    136 C45        -6.2810    0.7850    1.3970 c3        1 MOL     -0.182717
    137 H62        -3.7840    0.4830    1.5310 hn        1 MOL      0.373963
    138 H63        -5.6730   -0.8870    0.1860 h1        1 MOL      0.040687
    139 H64        -5.6280    1.1140    2.2080 hc        1 MOL      0.059826
    140 H65        -6.8590    1.6310    1.0410 hc        1 MOL      0.059826
    141 H66        -6.8690   -0.0280    1.8360 hc        1 MOL      0.059826
    142 N13        -6.7920    0.5250   -1.8740 n         1 MOL     -0.571363
    143 C46        -7.8790   -0.4270   -1.5020 c3        1 MOL      0.271444
    144 C47        -9.3190   -0.0420   -2.1150 c         1 MOL      0.268203
    145 O19        -9.4310    0.3140   -3.3060 o         1 MOL     -0.494066
    146 C48        -7.5300   -1.8320   -1.9520 c3        1 MOL     -0.061408
    147 H67        -6.9100    1.0800   -2.7140 hn        1 MOL      0.322577
    148 H68        -8.0680   -0.2900   -0.4320 h1        1 MOL     -0.098350
    149 H69        -6.6520   -2.2580   -1.4500 hc        1 MOL      0.018823
    150 H70        -8.3260   -2.5630   -1.8290 hc        1 MOL      0.018823
    151 H71        -7.2610   -1.7970   -3.0070 hc        1 MOL      0.018823
    152 N14       -10.3850   -0.0730   -1.3180 n         1 MOL     -0.049356
    153 C49       -10.3990   -0.2920    0.1510 c3        1 MOL     -0.345169
    154 C50        -9.8820    0.9120    0.9680 c         1 MOL      0.706052
    155 O20        -9.5360    0.7150    2.1100 o         1 MOL     -0.592795
    156 C51       -11.8880   -0.6310    0.6200 c3        1 MOL     -0.064742
    157 C52       -12.9120    0.4090    0.1760 c3        1 MOL     -0.197063
    158 C53       -13.5490   -0.0810   -1.1790 c         1 MOL      0.684357
    159 O21       -14.5050   -0.9330   -1.1030 o         1 MOL     -0.658045
    160 O22       -13.1270    0.4280   -2.2000 o         1 MOL     -0.658045
    161 H72       -11.2360    0.2310   -1.7700 hn        1 MOL      0.190158
    162 H73        -9.7950   -1.1570    0.4310 h1        1 MOL      0.132735
    163 H74       -11.9270   -0.6550    1.7080 hc        1 MOL      0.066620
    164 H75       -12.1720   -1.6300    0.2770 hc        1 MOL      0.066620
    165 H76       -12.4020    1.3680    0.0750 hc        1 MOL      0.034498
    166 H77       -13.6320    0.4790    0.9950 hc        1 MOL      0.034498
    167 N15        -9.6570    2.0390    0.2730 n         1 MOL     -0.250356
    168 C54        -9.2160    3.2810    0.8900 c3        1 MOL     -0.329151
    169 H78        -9.8840    3.5350    1.7120 h1        1 MOL      0.126975
    170 H79        -8.2020    3.1570    1.2700 h1        1 MOL      0.126975
    171 H80        -9.2310    4.0800    0.1490 h1        1 MOL      0.126975
    172 H81        -9.9070    1.9890   -0.7080 hn        1 MOL      0.244134
    173 Ca1         2.8030    0.2010   -0.8850 Ca        1 MOL      1.729851
    174 O23         3.3870    2.0720   -2.8850 oh        1 MOL     -0.823663
    175 O24         1.1570   -2.0040   -1.4570 oh        1 MOL     -0.823663
    176 H82         3.0510    2.9680   -2.8980 ho        1 MOL      0.405734
    177 H83         1.7890   -1.9890   -2.1700 ho        1 MOL      0.405734
    178 H84         3.6230    1.8960   -3.8000 ho        1 MOL      0.405734
    179 H85         0.3070   -2.0110   -1.8860 ho        1 MOL      0.405734
    180 O25         0.6100    1.0710   -1.9610 oh        1 MOL     -0.823663
    181 H86         0.3090    0.8260   -2.8350 ho        1 MOL      0.405734
    182 H87         0.0590    1.8110   -1.7120 ho        1 MOL      0.405734
@<TRIPOS>BOND
     1    1    2 1   
     2    1    4 1   
     3    1    5 1   
     4    1    6 1   
     5    2    3 2   
     6    2    7 1   
     7    7    8 1   
     8    7   15 1   
     9    8    9 1   
    10    8   11 1   
    11    8   16 1   
    12    9   10 2   
    13    9   19 1   
    14   11   12 1   
    15   11   17 1   
    16   11   18 1   
    17   12   13 1   
    18   12   14 1   
    19   19   20 1   
    20   19   28 1   
    21   20   21 1   
    22   20   23 1   
    23   20   29 1   
    24   21   22 2   
    25   21   41 1   
    26   23   24 1   
    27   23   30 1   
    28   23   31 1   
    29   24   25 1   
    30   24   32 1   
    31   24   33 1   
    32   25   26 1   
    33   25   34 1   
    34   25   35 1   
    35   26   27 1   
    36   26   36 1   
    37   26   37 1   
    38   27   38 1   
    39   27   39 1   
    40   27   40 1   
    41   41   42 1   
    42   41   49 1   
    43   42   43 1   
    44   42   45 1   
    45   42   50 1   
    46   43   44 2   
    47   43   53 1   
    48   45   46 1   
    49   45   51 1   
    50   45   52 1   
    51   46   47 1   
    52   46   48 1   
    53   53   54 1   
    54   53   57 1   
    55   54   55 1   
    56   54   58 1   
    57   54   59 1   
    58   55   56 2   
    59   55   60 1   
    60   60   61 1   
    61   60   68 1   
    62   61   62 1   
    63   61   64 1   
    64   61   69 1   
    65   62   63 2   
    66   62   74 1   
    67   64   65 1   
    68   64   70 1   
    69   64   71 1   
    70   65   66 1   
    71   65   67 2   
    72   66   72 1   
    73   66   73 1   
    74   74   75 1   
    75   74   78 1   
    76   75   76 1   
    77   75   79 1   
    78   75   80 1   
    79   76   77 2   
    80   76   81 1   
    81   81   82 1   
    82   81   93 1   
    83   82   83 1   
    84   82   85 1   
    85   82   94 1   
    86   83   84 2   
    87   83  102 1   
    88   85   86 1   
    89   85   95 1   
    90   85   96 1   
    91   86   87 ar  
    92   86   88 ar  
    93   87   89 ar  
    94   87   97 1   
    95   88   90 ar  
    96   88   98 1   
    97   89   91 ar  
    98   89   99 1   
    99   90   91 ar  
   100   90  100 1   
   101   91   92 1   
   102   92  101 1   
   103  102  103 1   
   104  102  110 1   
   105  103  104 1   
   106  103  106 1   
   107  103  111 1   
   108  104  105 2   
   109  104  121 1   
   110  106  107 1   
   111  106  108 1   
   112  106  112 1   
   113  107  109 1   
   114  107  113 1   
   115  107  114 1   
   116  108  115 1   
   117  108  116 1   
   118  108  117 1   
   119  109  118 1   
   120  109  119 1   
   121  109  120 1   
   122  121  122 1   
   123  121  127 1   
   124  122  123 1   
   125  122  125 1   
   126  122  128 1   
   127  123  124 2   
   128  123  132 1   
   129  125  126 1   
   130  125  129 1   
   131  125  130 1   
   132  126  131 1   
   133  132  133 1   
   134  132  137 1   
   135  133  134 1   
   136  133  136 1   
   137  133  138 1   
   138  134  135 2   
   139  134  142 1   
   140  136  139 1   
   141  136  140 1   
   142  136  141 1   
   143  142  143 1   
   144  142  147 1   
   145  143  144 1   
   146  143  146 1   
   147  143  148 1   
   148  144  145 2   
   149  144  152 1   
   150  146  149 1   
   151  146  150 1   
   152  146  151 1   
   153  152  153 1   
   154  152  161 1   
   155  153  154 1   
   156  153  156 1   
   157  153  162 1   
   158  154  155 2   
   159  154  167 1   
   160  156  157 1   
   161  156  163 1   
   162  156  164 1   
   163  157  158 1   
   164  157  165 1   
   165  157  166 1   
   166  158  159 1   
   167  158  160 1   
   168  167  168 1   
   169  167  172 1   
   170  168  169 1   
   171  168  170 1   
   172  168  171 1   
   173  174  176 1   
   174  174  178 1   
   175  175  177 1   
   176  175  179 1   
   177  180  181 1   
   178  180  182 1   
@<TRIPOS>SUBSTRUCTURE
     1 MOL         1 TEMP              0 ****  ****    0 ROOT
