@<TRIPOS>MOLECULE
MOL
  192   187     1     0     0
SMALL
resp


@<TRIPOS>ATOM
      1 C1          9.1880    1.4710    1.3890 c3        1 MOL     -0.432535
      2 C2          7.9910    0.6130    0.8640 c         1 MOL      0.713557
      3 O1          6.9730    0.3380    1.5310 o         1 MOL     -0.717090
      4 H1          9.5010    1.0980    2.3650 hc        1 MOL      0.112179
      5 H2         10.0200    1.4000    0.6910 hc        1 MOL      0.112179
      6 H3          8.8770    2.5110    1.4810 hc        1 MOL      0.112179
      7 N1          8.1710    0.1880   -0.3840 n         1 MOL     -0.489678
      8 C3          7.1640   -0.4130   -1.2670 c3        1 MOL     -0.072313
      9 C4          6.7460   -1.8710   -0.8660 c         1 MOL      0.520630
     10 O2          6.8400   -2.7550   -1.7180 o         1 MOL     -0.494428
     11 C5          7.7750   -0.2700   -2.7140 c3        1 MOL     -0.025408
     12 C6          9.2310   -0.6220   -2.8700 c         1 MOL      0.641931
     13 O3         10.1200   -0.1380   -2.1050 o         1 MOL     -0.671335
     14 O4          9.5510   -1.3440   -3.8720 o         1 MOL     -0.671335
     15 H4          9.1200    0.2410   -0.7090 hn        1 MOL      0.234472
     16 H5          6.1990    0.0960   -1.2300 h1        1 MOL      0.117535
     17 H6          7.5980    0.7730   -2.9740 hc        1 MOL      0.029138
     18 H7          7.1990   -0.8550   -3.4320 hc        1 MOL      0.029138
     19 N2          6.4040   -2.1330    0.4080 n         1 MOL     -0.265967
     20 C7          5.9310   -3.4710    0.9100 c3        1 MOL     -0.132675
     21 C8          4.4880   -3.7460    0.5220 c         1 MOL      0.625539
     22 O5          4.2760   -4.8820    0.0490 o         1 MOL     -0.564652
     23 C9          6.2790   -3.7670    2.4120 c3        1 MOL     -0.058420
     24 C10         7.8120   -3.5050    2.7360 c3        1 MOL     -0.011659
     25 C11         8.7830   -4.5450    2.1180 c3        1 MOL     -0.101594
     26 C12        10.2320   -3.8990    2.1560 c3        1 MOL      0.179652
     27 N3         11.1970   -4.7600    1.5090 n4        1 MOL     -0.367803
     28 H8          6.4780   -1.3500    1.0440 hn        1 MOL      0.335682
     29 H9          6.4860   -4.1940    0.3130 h1        1 MOL      0.073117
     30 H10         6.0630   -4.7580    2.8010 hc        1 MOL      0.060188
     31 H11         5.6620   -3.1340    3.0560 hc        1 MOL      0.060188
     32 H12         7.8130   -3.5530    3.8200 hc        1 MOL     -0.006453
     33 H13         8.0410   -2.5080    2.3330 hc        1 MOL     -0.006453
     34 H14         8.4960   -4.6950    1.0830 hc        1 MOL      0.062230
     35 H15         8.8330   -5.4620    2.7010 hc        1 MOL      0.062230
     36 H16        10.5550   -3.7410    3.1860 hx        1 MOL      0.043641
     37 H17        10.2850   -2.9070    1.7010 hx        1 MOL      0.043641
     38 H18        11.9410   -4.2050    1.1230 hn        1 MOL      0.320317
     39 H19        11.6170   -5.4700    2.0970 hn        1 MOL      0.320317
     40 H20        10.8410   -5.2720    0.7130 hn        1 MOL      0.320317
     41 N4          3.5180   -2.8820    0.7210 n         1 MOL     -0.580968
     42 C13         3.5900   -1.5230    1.3160 c3        1 MOL      0.267552
     43 C14         3.7280   -0.3330    0.3380 c         1 MOL      0.245566
     44 O6          3.5470   -0.5620   -0.9190 o         1 MOL     -0.496254
     45 C15         2.2520   -1.3270    2.1460 c3        1 MOL     -0.181758
     46 C16         0.9940   -1.6720    1.4260 c         1 MOL      0.673579
     47 O7          0.6040   -0.7470    0.6300 o         1 MOL     -0.672156
     48 O8          0.5590   -2.8580    1.4410 o         1 MOL     -0.672156
     49 H21         2.5900   -3.1260    0.4090 hn        1 MOL      0.383941
     50 H22         4.4210   -1.3980    2.0010 h1        1 MOL      0.029663
     51 H23         2.2760   -0.2710    2.3800 hc        1 MOL      0.005913
     52 H24         2.3540   -1.9050    3.0670 hc        1 MOL      0.005913
     53 N5          3.9050    0.9210    0.7990 n         1 MOL     -0.236699
     54 C17         4.2120    2.0850   -0.0610 c3        1 MOL     -0.132391
     55 C18         2.9640    2.6140   -0.7250 c         1 MOL      0.430583
     56 O9          1.8970    2.0150   -0.6880 o         1 MOL     -0.408355
     57 H25         3.8810    1.1390    1.7890 hn        1 MOL      0.254330
     58 H26         4.9510    1.8470   -0.8220 h1        1 MOL      0.124797
     59 H27         4.7360    2.7730    0.5960 h1        1 MOL      0.124797
     60 N6          3.1130    3.7520   -1.4140 n         1 MOL     -0.466362
     61 C19         2.1420    4.4960   -2.2420 c3        1 MOL      0.249862
     62 C20         2.6310    5.8970   -2.3860 c         1 MOL      0.465342
     63 O10         3.7920    6.1300   -2.5370 o         1 MOL     -0.509751
     64 C21         1.9350    3.8400   -3.6220 c3        1 MOL     -0.316896
     65 C22         1.4850    2.4010   -3.6010 c         1 MOL      0.717956
     66 O11         0.3040    2.1550   -3.1590 o         1 MOL     -0.671888
     67 O12         2.1910    1.5170   -4.1400 o         1 MOL     -0.671888
     68 H28         4.0040    4.2160   -1.3290 hn        1 MOL      0.268717
     69 H29         1.1840    4.4710   -1.7280 h1        1 MOL     -0.017301
     70 H30         2.9000    3.8240   -4.1190 hc        1 MOL      0.091419
     71 H31         1.3010    4.4940   -4.2170 hc        1 MOL      0.091419
     72 N7          1.7650    6.9520   -2.4670 n         1 MOL     -0.427867
     73 C23         0.2510    6.9710   -2.3790 c3        1 MOL     -0.117395
     74 C24        -0.3370    6.5400   -1.0070 c         1 MOL      0.568160
     75 O13         0.2360    6.8160    0.0630 o         1 MOL     -0.536602
     76 H32         2.1650    7.8770   -2.5560 hn        1 MOL      0.314031
     77 H33        -0.2860    6.4470   -3.1640 h1        1 MOL      0.089225
     78 H34        -0.0130    8.0090   -2.5370 h1        1 MOL      0.089225
     79 N8         -1.4800    5.9180   -1.0930 n         1 MOL     -0.469208
     80 C25        -2.2060    5.3070    0.0310 c3        1 MOL      0.009209
     81 C26        -1.5570    3.9860    0.5260 c         1 MOL      0.977374
     82 O14        -1.0650    3.1210   -0.1770 o         1 MOL     -0.773428
     83 C27        -3.6690    4.9690   -0.4040 c3        1 MOL      0.096630
     84 C28        -4.4610    4.2190    0.6570 c3        1 MOL     -0.380306
     85 O15        -3.7220    4.3420   -1.7120 oh        1 MOL     -0.530252
     86 H35        -1.8960    5.7200   -1.9820 hn        1 MOL      0.295911
     87 H36        -2.1380    6.0990    0.7790 h1        1 MOL      0.070972
     88 H37        -4.1520    5.9190   -0.6170 h1        1 MOL      0.067701
     89 H38        -4.5910    3.9520   -1.7740 ho        1 MOL      0.386506
     90 H39        -3.9780    3.2700    0.8840 hc        1 MOL      0.106737
     91 H40        -4.5340    4.8730    1.5300 hc        1 MOL      0.106737
     92 H41        -5.4270    4.0840    0.1710 hc        1 MOL      0.106737
     93 N9         -1.3990    3.8890    1.8930 n         1 MOL     -0.574550
     94 C29        -0.9060    2.8150    2.6930 c3        1 MOL      0.003353
     95 C30        -1.5460    1.4260    2.5000 c         1 MOL      0.454709
     96 O16        -1.6930    0.9550    1.4000 o         1 MOL     -0.483037
     97 C31         0.6570    2.7710    2.5390 c3        1 MOL      0.401014
     98 C32         1.3880    4.1230    2.4560 c3        1 MOL     -0.146835
     99 C33         1.2280    1.8670    3.5990 c3        1 MOL     -0.565874
    100 C34         1.3200    5.2230    3.5270 c3        1 MOL     -0.421883
    101 H42        -1.8420    4.6620    2.3580 hn        1 MOL      0.259752
    102 H43        -1.0870    3.1200    3.7160 h1        1 MOL      0.041408
    103 H44         0.7640    2.1710    1.6500 hc        1 MOL     -0.064170
    104 H45         0.9550    4.4700    1.5140 hc        1 MOL      0.076179
    105 H46         2.4170    3.8710    2.2030 hc        1 MOL      0.076179
    106 H47         2.2930    1.8450    3.3510 hc        1 MOL      0.123965
    107 H48         1.0310    2.1970    4.6200 hc        1 MOL      0.123965
    108 H49         0.7680    0.8930    3.4680 hc        1 MOL      0.123965
    109 H50         1.9280    6.1040    3.3260 hc        1 MOL      0.118819
    110 H51         0.3450    5.6640    3.7250 hc        1 MOL      0.118819
    111 H52         1.8490    4.8680    4.4120 hc        1 MOL      0.118819
    112 N10        -1.8220    0.8290    3.6630 n         1 MOL     -0.329166
    113 C35        -2.3830   -0.5610    3.7730 c3        1 MOL     -0.312907
    114 C36        -3.8060   -0.7820    3.1540 c         1 MOL      0.594337
    115 O17        -4.0880   -1.9470    3.0770 o         1 MOL     -0.484498
    116 C37        -2.4040   -0.9960    5.2440 c3        1 MOL      0.535338
    117 C38        -2.2560   -2.4780    5.4880 c3        1 MOL     -0.371617
    118 O18        -3.5100   -0.5370    5.9590 oh        1 MOL     -0.645537
    119 H53        -1.6920    1.3330    4.5320 hn        1 MOL      0.237095
    120 H54        -1.6880   -1.2880    3.3340 h1        1 MOL      0.169538
    121 H55        -1.4940   -0.5840    5.6960 h1        1 MOL     -0.032077
    122 H56        -3.1910   -0.3970    6.8470 ho        1 MOL      0.390361
    123 H57        -1.8910   -2.6700    6.4920 hc        1 MOL      0.094479
    124 H58        -3.1680   -3.0020    5.1870 hc        1 MOL      0.094479
    125 H59        -1.4590   -2.8320    4.8320 hc        1 MOL      0.094479
    126 N11        -4.5950    0.2320    2.7260 n         1 MOL     -0.275540
    127 C39        -5.8890    0.0410    2.1120 c3        1 MOL     -0.210377
    128 C40        -5.9700   -0.6490    0.8060 c         1 MOL      0.443585
    129 O19        -5.2200   -0.1650   -0.1210 o         1 MOL     -0.478166
    130 C41        -6.7350    1.3130    2.0850 c3        1 MOL      0.604826
    131 C42        -8.2050    1.1250    1.7800 c3        1 MOL     -0.207828
    132 O20        -6.7420    1.9310    3.3200 oh        1 MOL     -0.635130
    133 H60        -4.3630    1.1700    3.0030 hn        1 MOL      0.194353
    134 H61        -6.3870   -0.5460    2.8840 h1        1 MOL      0.103556
    135 H62        -6.3950    2.0710    1.3820 h1        1 MOL     -0.115422
    136 H63        -5.9940    2.5280    3.2720 ho        1 MOL      0.379673
    137 H64        -8.8530    1.9860    1.9350 hc        1 MOL      0.051281
    138 H65        -8.2810    1.0350    0.6960 hc        1 MOL      0.051281
    139 H66        -8.6180    0.3250    2.3980 hc        1 MOL      0.051281
    140 N12        -6.7660   -1.7480    0.6800 n         1 MOL     -0.487053
    141 C43        -7.0620   -2.5640   -0.5210 c3        1 MOL      0.256516
    142 C44        -5.8900   -2.8240   -1.4610 c         1 MOL      0.424446
    143 O21        -6.0410   -2.6020   -2.6830 o         1 MOL     -0.499187
    144 C45        -8.4070   -2.0390   -1.1330 c3        1 MOL     -0.196053
    145 C46        -9.6180   -2.5600   -0.3080 c3        1 MOL     -0.177395
    146 C47       -11.0060   -2.4050   -1.0770 c3        1 MOL     -0.128759
    147 C48       -11.4210   -0.9950   -1.5870 c3        1 MOL      0.089474
    148 N13       -12.8650   -0.9040   -2.0340 n4        1 MOL     -0.152858
    149 H67        -7.3420   -1.9820    1.4760 hn        1 MOL      0.286008
    150 H68        -7.3100   -3.5690   -0.1960 h1        1 MOL      0.034113
    151 H69        -8.6130   -2.3830   -2.1470 hc        1 MOL      0.101802
    152 H70        -8.4410   -0.9470   -1.1970 hc        1 MOL      0.101802
    153 H71        -9.6590   -2.1730    0.7240 hc        1 MOL      0.078015
    154 H72        -9.6680   -3.6470   -0.2780 hc        1 MOL      0.078015
    155 H73       -11.7720   -2.7880   -0.4080 hc        1 MOL      0.082459
    156 H74       -11.1020   -3.0210   -1.9770 hc        1 MOL      0.082459
    157 H75       -10.7690   -0.6950   -2.3980 hx        1 MOL      0.044581
    158 H76       -11.2790   -0.2590   -0.7940 hx        1 MOL      0.044581
    159 H77       -13.5180   -0.7690   -1.2810 hn        1 MOL      0.176870
    160 H78       -13.0170   -0.0660   -2.5740 hn        1 MOL      0.176870
    161 H79       -13.0750   -1.7230   -2.5970 hn        1 MOL      0.176870
    162 N14        -4.7560   -3.3090   -0.9290 n         1 MOL     -0.394602
    163 C49        -3.4410   -3.3710   -1.5930 c3        1 MOL      0.373378
    164 C50        -2.3470   -2.8620   -0.6400 c         1 MOL      0.482627
    165 O22        -1.8500   -1.7790   -0.8570 o         1 MOL     -0.717718
    166 C51        -3.1500   -4.8040   -2.1540 c3        1 MOL     -0.373358
    167 C52        -3.5050   -4.7760   -3.6200 c3        1 MOL     -0.127527
    168 C53        -3.5650   -6.1830   -4.1830 c         1 MOL      0.761630
    169 O23        -2.6080   -6.8420   -4.5630 o         1 MOL     -0.636012
    170 O24        -4.6950   -6.5590   -4.5090 o         1 MOL     -0.636012
    171 H80        -4.7990   -3.5450    0.0620 hn        1 MOL      0.216817
    172 H81        -3.4970   -2.6350   -2.3890 h1        1 MOL      0.033251
    173 H82        -3.6560   -5.6120   -1.6270 hc        1 MOL      0.105634
    174 H83        -2.0830   -5.0430   -2.0790 hc        1 MOL      0.105634
    175 H84        -2.6610   -4.3180   -4.1420 hc        1 MOL      0.037604
    176 H85        -4.3970   -4.1780   -3.7930 hc        1 MOL      0.037604
    177 N15        -2.0770   -3.4800    0.4930 n         1 MOL     -0.226363
    178 C54        -2.4040   -4.8960    0.8960 c3        1 MOL     -0.151972
    179 H86        -2.6570   -5.4770    0.0090 h1        1 MOL      0.075607
    180 H87        -1.5400   -5.3430    1.3890 h1        1 MOL      0.075607
    181 H88        -3.2520   -4.8920    1.5810 h1        1 MOL      0.075607
    182 H89        -1.3560   -3.0270    1.0450 hn        1 MOL      0.290593
    183 Ca1        -0.5980    0.6550   -1.0340 Ca        1 MOL      1.810523
    184 O25        -1.4490   -0.3540   -3.3960 oh        1 MOL     -0.883121
    185 H90        -1.3330   -0.1610   -4.3220 ho        1 MOL      0.429023
    186 H91        -1.3160   -1.2930   -3.3180 ho        1 MOL      0.429023
    187 O26         1.3790   -0.5600   -2.5670 oh        1 MOL     -0.883121
    188 H92         1.7940    0.0980   -3.1150 ho        1 MOL      0.429023
    189 H93         2.0610   -0.8210   -1.9440 ho        1 MOL      0.429023
    190 O27        -3.2350    1.3900   -1.3410 oh        1 MOL     -0.883121
    191 H94        -3.8340    1.1560   -0.6250 ho        1 MOL      0.429023
    192 H95        -3.7860    1.4060   -2.1210 ho        1 MOL      0.429023
@<TRIPOS>BOND
     1    1    2 1   
     2    1    4 1   
     3    1    5 1   
     4    1    6 1   
     5    2    3 2   
     6    2    7 1   
     7    7    8 1   
     8    7   15 1   
     9    8    9 1   
    10    8   11 1   
    11    8   16 1   
    12    9   10 2   
    13    9   19 1   
    14   11   12 1   
    15   11   17 1   
    16   11   18 1   
    17   12   13 1   
    18   12   14 1   
    19   19   20 1   
    20   19   28 1   
    21   20   21 1   
    22   20   23 1   
    23   20   29 1   
    24   21   22 2   
    25   21   41 1   
    26   23   24 1   
    27   23   30 1   
    28   23   31 1   
    29   24   25 1   
    30   24   32 1   
    31   24   33 1   
    32   25   26 1   
    33   25   34 1   
    34   25   35 1   
    35   26   27 1   
    36   26   36 1   
    37   26   37 1   
    38   27   38 1   
    39   27   39 1   
    40   27   40 1   
    41   41   42 1   
    42   41   49 1   
    43   42   43 1   
    44   42   45 1   
    45   42   50 1   
    46   43   44 2   
    47   43   53 1   
    48   45   46 1   
    49   45   51 1   
    50   45   52 1   
    51   46   47 1   
    52   46   48 1   
    53   53   54 1   
    54   53   57 1   
    55   54   55 1   
    56   54   58 1   
    57   54   59 1   
    58   55   56 2   
    59   55   60 1   
    60   60   61 1   
    61   60   68 1   
    62   61   62 1   
    63   61   64 1   
    64   61   69 1   
    65   62   63 2   
    66   62   72 1   
    67   64   65 1   
    68   64   70 1   
    69   64   71 1   
    70   65   66 1   
    71   65   67 1   
    72   72   73 1   
    73   72   76 1   
    74   73   74 1   
    75   73   77 1   
    76   73   78 1   
    77   74   75 2   
    78   74   79 1   
    79   79   80 1   
    80   79   86 1   
    81   80   81 1   
    82   80   83 1   
    83   80   87 1   
    84   81   82 2   
    85   81   93 1   
    86   83   84 1   
    87   83   85 1   
    88   83   88 1   
    89   84   90 1   
    90   84   91 1   
    91   84   92 1   
    92   85   89 1   
    93   93   94 1   
    94   93  101 1   
    95   94   95 1   
    96   94   97 1   
    97   94  102 1   
    98   95   96 2   
    99   95  112 1   
   100   97   98 1   
   101   97   99 1   
   102   97  103 1   
   103   98  100 1   
   104   98  104 1   
   105   98  105 1   
   106   99  106 1   
   107   99  107 1   
   108   99  108 1   
   109  100  109 1   
   110  100  110 1   
   111  100  111 1   
   112  112  113 1   
   113  112  119 1   
   114  113  114 1   
   115  113  116 1   
   116  113  120 1   
   117  114  115 2   
   118  114  126 1   
   119  116  117 1   
   120  116  118 1   
   121  116  121 1   
   122  117  123 1   
   123  117  124 1   
   124  117  125 1   
   125  118  122 1   
   126  126  127 1   
   127  126  133 1   
   128  127  128 1   
   129  127  130 1   
   130  127  134 1   
   131  128  129 2   
   132  128  140 1   
   133  130  131 1   
   134  130  132 1   
   135  130  135 1   
   136  131  137 1   
   137  131  138 1   
   138  131  139 1   
   139  132  136 1   
   140  140  141 1   
   141  140  149 1   
   142  141  142 1   
   143  141  144 1   
   144  141  150 1   
   145  142  143 2   
   146  142  162 1   
   147  144  145 1   
   148  144  151 1   
   149  144  152 1   
   150  145  146 1   
   151  145  153 1   
   152  145  154 1   
   153  146  147 1   
   154  146  155 1   
   155  146  156 1   
   156  147  148 1   
   157  147  157 1   
   158  147  158 1   
   159  148  159 1   
   160  148  160 1   
   161  148  161 1   
   162  162  163 1   
   163  162  171 1   
   164  163  164 1   
   165  163  166 1   
   166  163  172 1   
   167  164  165 2   
   168  164  177 1   
   169  166  167 1   
   170  166  173 1   
   171  166  174 1   
   172  167  168 1   
   173  167  175 1   
   174  167  176 1   
   175  168  169 1   
   176  168  170 1   
   177  177  178 1   
   178  177  182 1   
   179  178  179 1   
   180  178  180 1   
   181  178  181 1   
   182  184  185 1   
   183  184  186 1   
   184  187  188 1   
   185  187  189 1   
   186  190  191 1   
   187  190  192 1   
@<TRIPOS>SUBSTRUCTURE
     1 MOL         1 TEMP              0 ****  ****    0 ROOT
