@<TRIPOS>MOLECULE
MOL
  195   189     1     0     0
SMALL
resp


@<TRIPOS>ATOM
      1 C1         -6.4900   -4.1650    4.0500 c3        1 MOL     -0.391365
      2 C2         -5.8170   -3.2950    2.9790 c         1 MOL      0.787697
      3 O1         -5.4360   -3.6190    1.9230 o         1 MOL     -0.609891
      4 H1         -5.7610   -4.8630    4.4610 hc        1 MOL      0.097147
      5 H2         -6.8740   -3.5300    4.8480 hc        1 MOL      0.097147
      6 H3         -7.3130   -4.7220    3.6010 hc        1 MOL      0.097147
      7 N1         -5.5780   -2.0290    3.3740 n         1 MOL     -0.534607
      8 C3         -5.2280   -0.8720    2.5070 c3        1 MOL      0.307472
      9 C4         -3.7710   -0.8410    2.0750 c         1 MOL      0.156607
     10 O2         -3.3170   -0.0830    1.2670 o         1 MOL     -0.371006
     11 C5         -5.5310    0.4540    3.2120 c3        1 MOL     -0.126788
     12 C6         -6.8360    0.5510    3.9670 c         1 MOL      0.649789
     13 O3         -7.2020   -0.2610    4.8380 o         1 MOL     -0.686033
     14 O4         -7.6120    1.4900    3.6080 o         1 MOL     -0.686033
     15 H4         -5.9630   -1.8010    4.2860 hn        1 MOL      0.211706
     16 H5         -5.8610   -0.8440    1.6310 h1        1 MOL      0.097368
     17 H6         -5.6250    1.2390    2.4580 hc        1 MOL     -0.014155
     18 H7         -4.6930    0.6860    3.8680 hc        1 MOL     -0.014155
     19 N2         -2.9240   -1.6970    2.6690 n         1 MOL     -0.253233
     20 C7         -1.4360   -1.7500    2.3710 c3        1 MOL      0.317490
     21 C8         -0.9750   -2.8790    1.4580 c         1 MOL      0.294864
     22 O5         -1.4770   -3.9860    1.5060 o         1 MOL     -0.476032
     23 C9         -0.6770   -2.0240    3.6620 c3        1 MOL     -0.286315
     24 C10        -0.7090   -0.9030    4.7320 c3        1 MOL      0.142932
     25 C11         0.2780   -1.2520    5.8190 c3        1 MOL      0.042867
     26 C12         0.4690   -0.1620    6.8290 c3        1 MOL      0.006693
     27 N3         -0.7270    0.1260    7.5430 n4        1 MOL     -0.295036
     28 H8         -3.2920   -2.4030    3.2850 hn        1 MOL      0.191684
     29 H9         -1.1870   -0.7980    1.8990 h1        1 MOL     -0.047602
     30 H10         0.3640   -2.2940    3.5020 hc        1 MOL      0.086425
     31 H11        -1.1700   -2.8230    4.2220 hc        1 MOL      0.086425
     32 H12        -1.6800   -0.9670    5.2370 hc        1 MOL     -0.045212
     33 H13        -0.4940    0.0890    4.3310 hc        1 MOL     -0.045212
     34 H14         1.2300   -1.4510    5.3170 hc        1 MOL      0.020203
     35 H15         0.0600   -2.1930    6.3300 hc        1 MOL      0.020203
     36 H16         0.6220    0.8080    6.3500 hx        1 MOL      0.085072
     37 H17         1.3580   -0.3210    7.4470 hx        1 MOL      0.085072
     38 H18        -1.1580   -0.6220    8.0600 hn        1 MOL      0.310521
     39 H19        -0.5510    0.9260    8.1320 hn        1 MOL      0.310521
     40 H20        -1.4140    0.5010    6.9080 hn        1 MOL      0.310521
     41 N4          0.0810   -2.6750    0.6340 n         1 MOL     -0.225326
     42 C13         0.8780   -1.5350    0.3640 c3        1 MOL      0.224295
     43 C14         1.5690   -0.6650    1.5130 c         1 MOL      0.206178
     44 O6          0.9680    0.3130    1.8460 o         1 MOL     -0.383743
     45 C15         0.2690   -0.7710   -0.8980 c3        1 MOL     -0.118145
     46 C16         0.2310   -1.7740   -2.0850 c         1 MOL      0.404721
     47 O7          1.0860   -2.6480   -2.1930 o         1 MOL     -0.639559
     48 O8         -0.7120   -1.6910   -2.9270 o         1 MOL     -0.639559
     49 H21         0.1780   -3.4990    0.0480 hn        1 MOL      0.179421
     50 H22         1.7800   -2.0390    0.0270 h1        1 MOL     -0.021407
     51 H23         0.9540    0.0230   -1.1830 hc        1 MOL      0.122514
     52 H24        -0.7420   -0.4550   -0.6230 hc        1 MOL      0.122514
     53 N5          2.7240   -0.8930    2.0990 n         1 MOL     -0.258317
     54 C17         3.5680   -2.0900    1.8840 c3        1 MOL      0.088666
     55 C18         4.5110   -2.4750    3.0570 c         1 MOL      0.511075
     56 O9          4.2820   -1.9220    4.1350 o         1 MOL     -0.557828
     57 H25         3.0520   -0.2320    2.7870 hn        1 MOL      0.286516
     58 H26         4.1710   -1.7830    1.0270 h1        1 MOL      0.020983
     59 H27         2.9640   -2.9130    1.5080 h1        1 MOL      0.020983
     60 N6          5.5220   -3.3520    2.8540 n         1 MOL     -0.434561
     61 C19         5.7780   -4.1300    1.6110 c3        1 MOL     -0.071172
     62 C20         6.7940   -3.3160    0.7060 c         1 MOL      0.621762
     63 O10         7.6720   -2.7150    1.2650 o         1 MOL     -0.442749
     64 C21         6.2990   -5.5740    1.9530 c3        1 MOL     -0.183440
     65 C22         7.5200   -5.6650    2.8630 c         1 MOL      0.704583
     66 O11         7.7190   -4.8450    3.7820 o         1 MOL     -0.675387
     67 O12         8.2770   -6.6680    2.6440 o         1 MOL     -0.675387
     68 H28         6.0500   -3.6680    3.6580 hn        1 MOL      0.320791
     69 H29         4.8440   -4.2570    1.0600 h1        1 MOL      0.045552
     70 H30         6.4490   -6.1360    1.0360 hc        1 MOL      0.037394
     71 H31         5.4910   -6.1210    2.4410 hc        1 MOL      0.037394
     72 N7          6.4980   -3.2910   -0.6170 n         1 MOL     -0.444255
     73 C23         7.0780   -2.4780   -1.7200 c3        1 MOL     -0.144342
     74 C24         6.6760   -0.9910   -1.9160 c         1 MOL      0.637315
     75 O13         7.5190   -0.1240   -2.1140 o         1 MOL     -0.545177
     76 H32         5.5870   -3.7010   -0.8060 hn        1 MOL      0.244583
     77 H33         6.9990   -2.8890   -2.7190 h1        1 MOL      0.107597
     78 H34         8.1160   -2.3630   -1.3960 h1        1 MOL      0.107597
     79 N8          5.3450   -0.5990   -1.8560 n         1 MOL     -0.628009
     80 C25         4.9770    0.8330   -2.0960 c3        1 MOL      0.012243
     81 C26         5.2470    1.7030   -0.8680 c         1 MOL      0.870884
     82 O14         5.0180    1.4520    0.2940 o         1 MOL     -0.586466
     83 C27         3.5010    1.0640   -2.4850 c3        1 MOL      0.099553
     84 C28         2.8770    0.0980   -3.5190 c3        1 MOL     -0.187594
     85 O15         3.2740    2.4120   -2.8820 oh        1 MOL     -0.535994
     86 H35         4.6270   -1.2780   -1.6970 hn        1 MOL      0.306454
     87 H36         5.5800    1.1400   -2.9540 h1        1 MOL      0.118269
     88 H37         2.8840    0.8280   -1.6200 h1        1 MOL      0.023721
     89 H38         2.3880    2.6070   -2.5770 ho        1 MOL      0.322995
     90 H39         2.9500   -0.9650   -3.2870 hc        1 MOL      0.079627
     91 H40         1.8010    0.3170   -3.5270 hc        1 MOL      0.079627
     92 H41         3.2560    0.3030   -4.5140 hc        1 MOL      0.079627
     93 N9          5.7530    2.8690   -1.2930 n         1 MOL     -0.740664
     94 C29         5.9660    4.0370   -0.3410 c3        1 MOL      0.027382
     95 C30         4.7090    4.8360    0.0320 c         1 MOL      0.284012
     96 O16         4.7390    5.6240    1.0130 o         1 MOL     -0.490857
     97 C31         7.1700    4.9390   -0.8440 c3        1 MOL      0.297869
     98 C32         8.0060    5.5760    0.3170 c3        1 MOL     -0.064591
     99 C33         6.7710    6.0640   -1.7570 c3        1 MOL     -0.470718
    100 C34         8.8440    4.6240    1.1380 c3        1 MOL     -0.315464
    101 H42         5.7190    3.1000   -2.2740 hn        1 MOL      0.339129
    102 H43         6.2910    3.6560    0.6290 h1        1 MOL      0.140592
    103 H44         7.8530    4.3850   -1.4910 hc        1 MOL      0.003062
    104 H45         7.3360    6.1370    0.9680 hc        1 MOL      0.050563
    105 H46         8.6150    6.4100   -0.0470 hc        1 MOL      0.050563
    106 H47         7.6920    6.5600   -2.0350 hc        1 MOL      0.107390
    107 H48         6.2590    5.6130   -2.6060 hc        1 MOL      0.107390
    108 H49         6.0500    6.6810   -1.2140 hc        1 MOL      0.107390
    109 H50         8.1840    3.8880    1.5840 hc        1 MOL      0.080568
    110 H51         9.5490    4.0410    0.5400 hc        1 MOL      0.080568
    111 H52         9.4270    5.2030    1.8480 hc        1 MOL      0.080568
    112 N10         3.6240    4.5890   -0.7300 n         1 MOL     -0.035181
    113 C35         2.2510    5.0510   -0.3700 c3        1 MOL     -0.139611
    114 C36         1.2900    3.9640   -0.5130 c         1 MOL      0.511680
    115 O17         1.2970    3.2140   -1.4620 o         1 MOL     -0.448941
    116 C37         1.7970    6.2890   -1.3160 c3        1 MOL      0.325198
    117 C38         1.8940    6.1420   -2.8290 c3        1 MOL     -0.221210
    118 O18         2.5780    7.4630   -1.0310 oh        1 MOL     -0.616115
    119 H53         3.7060    3.8780   -1.4390 hn        1 MOL      0.125901
    120 H54         2.1910    5.3930    0.6570 h1        1 MOL      0.116508
    121 H55         0.7630    6.4640   -1.0300 h1        1 MOL     -0.012791
    122 H56         2.1070    8.1970   -1.4340 ho        1 MOL      0.392209
    123 H57         1.2480    5.3720   -3.2590 hc        1 MOL      0.059039
    124 H58         1.5180    7.0610   -3.2770 hc        1 MOL      0.059039
    125 H59         2.9160    5.9310   -3.1490 hc        1 MOL      0.059039
    126 N11         0.3250    3.8580    0.4440 n         1 MOL     -0.435158
    127 C39        -0.7020    2.8640    0.4380 c3        1 MOL     -0.060430
    128 C40        -1.8550    3.2790   -0.4640 c         1 MOL      0.573930
    129 O19        -1.9200    4.4400   -0.9440 o         1 MOL     -0.550164
    130 C41        -1.2720    2.7170    1.8860 c3        1 MOL      0.361891
    131 C42        -2.1870    3.8220    2.3830 c3        1 MOL     -0.266273
    132 O20        -0.2440    2.4380    2.8130 oh        1 MOL     -0.629433
    133 H60         0.3790    4.4940    1.2270 hn        1 MOL      0.310010
    134 H61        -0.3250    1.9100    0.0520 h1        1 MOL      0.021093
    135 H62        -1.9870    1.9040    1.9590 h1        1 MOL      0.047756
    136 H63         0.3820    1.7460    2.5740 ho        1 MOL      0.329154
    137 H64        -1.6080    4.7500    2.4240 hc        1 MOL      0.063696
    138 H65        -3.0250    3.8930    1.6920 hc        1 MOL      0.063696
    139 H66        -2.4550    3.5670    3.4160 hc        1 MOL      0.063696
    140 N12        -2.8580    2.4380   -0.7230 n         1 MOL     -0.427827
    141 C43        -4.1850    2.8450   -1.3570 c3        1 MOL      0.041412
    142 C44        -4.8590    1.5990   -2.0110 c         1 MOL      0.609645
    143 O21        -5.5110    1.7460   -2.9870 o         1 MOL     -0.592369
    144 C45        -5.0720    3.4700   -0.2420 c3        1 MOL     -0.075357
    145 C46        -6.5140    3.5400   -0.7400 c3        1 MOL     -0.037742
    146 C47        -7.2200    4.6320    0.0700 c3        1 MOL      0.104632
    147 C48        -8.7010    4.9560   -0.1920 c3        1 MOL      0.087587
    148 N13        -9.1860    5.9990    0.7460 n4        1 MOL     -0.501634
    149 H67        -2.6360    1.4570   -0.7220 hn        1 MOL      0.179292
    150 H68        -4.0270    3.5870   -2.1380 h1        1 MOL      0.075956
    151 H69        -4.7270    4.4750   -0.0270 hc        1 MOL      0.056608
    152 H70        -5.0210    2.8380    0.6400 hc        1 MOL      0.056608
    153 H71        -7.0150    2.5790   -0.8180 hc        1 MOL      0.033029
    154 H72        -6.4950    3.8460   -1.7950 hc        1 MOL      0.033029
    155 H73        -6.6400    5.5060   -0.2150 hc        1 MOL     -0.016341
    156 H74        -7.0250    4.5320    1.1390 hc        1 MOL     -0.016341
    157 H75        -9.2430    4.0100   -0.0660 hx        1 MOL      0.062853
    158 H76        -8.8030    5.3270   -1.2020 hx        1 MOL      0.062853
    159 H77        -9.2100    6.9110    0.3140 hn        1 MOL      0.355932
    160 H78       -10.1250    5.7270    0.9880 hn        1 MOL      0.355932
    161 H79        -8.6090    5.9020    1.5710 hn        1 MOL      0.355932
    162 N14        -4.6120    0.3940   -1.4170 n         1 MOL     -0.150234
    163 C49        -5.0630   -0.8960   -1.9560 c3        1 MOL     -0.738795
    164 C50        -6.6040   -1.1820   -1.8890 c         1 MOL      0.671756
    165 O22        -7.1280   -1.3050   -0.7460 o         1 MOL     -0.550835
    166 C51        -4.2050   -2.0580   -1.3570 c3        1 MOL      0.815417
    167 C52        -4.3620   -3.4440   -2.1010 c3        1 MOL     -0.574660
    168 C53        -3.9020   -3.4220   -3.5730 c         1 MOL      0.724002
    169 O23        -4.6600   -2.8980   -4.4650 o         1 MOL     -0.736941
    170 O24        -2.7540   -3.9310   -3.8250 o         1 MOL     -0.736941
    171 H80        -4.1770    0.4600   -0.5030 hn        1 MOL      0.114709
    172 H81        -4.7530   -0.9510   -3.0020 h1        1 MOL      0.255513
    173 H82        -4.5180   -2.1760   -0.3190 hc        1 MOL     -0.132812
    174 H83        -3.1430   -1.8320   -1.3040 hc        1 MOL     -0.132812
    175 H84        -5.4260   -3.6910   -2.0920 hc        1 MOL      0.130212
    176 H85        -3.7490   -4.2300   -1.6760 hc        1 MOL      0.130212
    177 N15        -7.2500   -1.3620   -3.0370 n         1 MOL     -0.352653
    178 C54        -8.6980   -1.7660   -3.1530 c3        1 MOL     -0.086825
    179 H86        -9.2510   -0.9850   -3.6750 h1        1 MOL      0.069573
    180 H87        -8.7730   -2.6990   -3.7110 h1        1 MOL      0.069573
    181 H88        -9.1190   -1.9030   -2.1560 h1        1 MOL      0.069573
    182 H89        -6.7690   -1.3360   -3.9240 hn        1 MOL      0.338457
    183 Ca1        -0.2320   -3.8700   -4.0390 Ca        1 MOL      1.777524
    184 O25        -1.9550   -6.3850   -3.7030 oh        1 MOL     -0.920140
    185 H90        -2.4330   -7.0130   -4.2340 ho        1 MOL      0.447870
    186 H91        -2.5310   -5.6130   -3.6640 ho        1 MOL      0.447870
    187 O26        -0.1080   -4.9140   -6.5940 oh        1 MOL     -0.920140
    188 H92        -0.4770   -4.9480   -7.4790 ho        1 MOL      0.447870
    189 H93         0.6780   -5.4550   -6.6450 ho        1 MOL      0.447870
    190 O27         1.8980   -2.8840   -5.2670 oh        1 MOL     -0.920140
    191 H94         2.8110   -3.1490   -5.3920 ho        1 MOL      0.447870
    192 H95         1.6740   -2.4140   -6.0750 ho        1 MOL      0.447870
    193 O28        -1.7210   -2.3030   -6.0420 oh        1 MOL     -0.920140
    194 H96        -2.6220   -2.1220   -5.7730 ho        1 MOL      0.447870
    195 H97        -1.7650   -2.3680   -6.9970 ho        1 MOL      0.447870
@<TRIPOS>BOND
     1    1    2 1   
     2    1    4 1   
     3    1    5 1   
     4    1    6 1   
     5    2    3 2   
     6    2    7 1   
     7    7    8 1   
     8    7   15 1   
     9    8    9 1   
    10    8   11 1   
    11    8   16 1   
    12    9   10 2   
    13    9   19 1   
    14   11   12 1   
    15   11   17 1   
    16   11   18 1   
    17   12   13 1   
    18   12   14 1   
    19   19   20 1   
    20   19   28 1   
    21   20   21 1   
    22   20   23 1   
    23   20   29 1   
    24   21   22 2   
    25   21   41 1   
    26   23   24 1   
    27   23   30 1   
    28   23   31 1   
    29   24   25 1   
    30   24   32 1   
    31   24   33 1   
    32   25   26 1   
    33   25   34 1   
    34   25   35 1   
    35   26   27 1   
    36   26   36 1   
    37   26   37 1   
    38   27   38 1   
    39   27   39 1   
    40   27   40 1   
    41   41   42 1   
    42   41   49 1   
    43   42   43 1   
    44   42   45 1   
    45   42   50 1   
    46   43   44 2   
    47   43   53 1   
    48   45   46 1   
    49   45   51 1   
    50   45   52 1   
    51   46   47 1   
    52   46   48 1   
    53   53   54 1   
    54   53   57 1   
    55   54   55 1   
    56   54   58 1   
    57   54   59 1   
    58   55   56 2   
    59   55   60 1   
    60   60   61 1   
    61   60   68 1   
    62   61   62 1   
    63   61   64 1   
    64   61   69 1   
    65   62   63 2   
    66   62   72 1   
    67   64   65 1   
    68   64   70 1   
    69   64   71 1   
    70   65   66 1   
    71   65   67 1   
    72   72   73 1   
    73   72   76 1   
    74   73   74 1   
    75   73   77 1   
    76   73   78 1   
    77   74   75 2   
    78   74   79 1   
    79   79   80 1   
    80   79   86 1   
    81   80   81 1   
    82   80   83 1   
    83   80   87 1   
    84   81   82 2   
    85   81   93 1   
    86   83   84 1   
    87   83   85 1   
    88   83   88 1   
    89   84   90 1   
    90   84   91 1   
    91   84   92 1   
    92   85   89 1   
    93   93   94 1   
    94   93  101 1   
    95   94   95 1   
    96   94   97 1   
    97   94  102 1   
    98   95   96 2   
    99   95  112 1   
   100   97   98 1   
   101   97   99 1   
   102   97  103 1   
   103   98  100 1   
   104   98  104 1   
   105   98  105 1   
   106   99  106 1   
   107   99  107 1   
   108   99  108 1   
   109  100  109 1   
   110  100  110 1   
   111  100  111 1   
   112  112  113 1   
   113  112  119 1   
   114  113  114 1   
   115  113  116 1   
   116  113  120 1   
   117  114  115 2   
   118  114  126 1   
   119  116  117 1   
   120  116  118 1   
   121  116  121 1   
   122  117  123 1   
   123  117  124 1   
   124  117  125 1   
   125  118  122 1   
   126  126  127 1   
   127  126  133 1   
   128  127  128 1   
   129  127  130 1   
   130  127  134 1   
   131  128  129 2   
   132  128  140 1   
   133  130  131 1   
   134  130  132 1   
   135  130  135 1   
   136  131  137 1   
   137  131  138 1   
   138  131  139 1   
   139  132  136 1   
   140  140  141 1   
   141  140  149 1   
   142  141  142 1   
   143  141  144 1   
   144  141  150 1   
   145  142  143 2   
   146  142  162 1   
   147  144  145 1   
   148  144  151 1   
   149  144  152 1   
   150  145  146 1   
   151  145  153 1   
   152  145  154 1   
   153  146  147 1   
   154  146  155 1   
   155  146  156 1   
   156  147  148 1   
   157  147  157 1   
   158  147  158 1   
   159  148  159 1   
   160  148  160 1   
   161  148  161 1   
   162  162  163 1   
   163  162  171 1   
   164  163  164 1   
   165  163  166 1   
   166  163  172 1   
   167  164  165 2   
   168  164  177 1   
   169  166  167 1   
   170  166  173 1   
   171  166  174 1   
   172  167  168 1   
   173  167  175 1   
   174  167  176 1   
   175  168  169 1   
   176  168  170 1   
   177  177  178 1   
   178  177  182 1   
   179  178  179 1   
   180  178  180 1   
   181  178  181 1   
   182  184  185 1   
   183  184  186 1   
   184  187  188 1   
   185  187  189 1   
   186  190  191 1   
   187  190  192 1   
   188  193  194 1   
   189  193  195 1   
@<TRIPOS>SUBSTRUCTURE
     1 MOL         1 TEMP              0 ****  ****    0 ROOT
