@<TRIPOS>MOLECULE
MOL
  189   185     1     0     0
SMALL
resp


@<TRIPOS>ATOM
      1 C1          8.9670   -0.5980    2.5420 c3        1 MOL     -0.574184
      2 C2          7.9520   -0.4590    1.4020 c         1 MOL      0.914252
      3 O1          6.7540   -0.5280    1.5990 o         1 MOL     -0.701599
      4 H1          9.4410    0.3660    2.7250 hc        1 MOL      0.141633
      5 H2          8.4560   -0.9280    3.4460 hc        1 MOL      0.141633
      6 H3          9.7270   -1.3300    2.2660 hc        1 MOL      0.141633
      7 N1          8.3680   -0.4200    0.1300 n         1 MOL     -0.810675
      8 C3          7.5070   -0.1780   -1.0400 c3        1 MOL      0.362862
      9 C4          6.8030   -1.4050   -1.5170 c         1 MOL      0.374108
     10 O2          6.8790   -1.7420   -2.7060 o         1 MOL     -0.519712
     11 C5          8.4110    0.4260   -2.1120 c3        1 MOL     -0.238377
     12 C6          9.1650    1.6440   -1.7230 c         1 MOL      0.752539
     13 O3         10.3390    1.7380   -2.0500 o         1 MOL     -0.645198
     14 O4          8.6280    2.4610   -0.9430 o         1 MOL     -0.645198
     15 H4          9.3710   -0.4390    0.0030 hn        1 MOL      0.360001
     16 H5          6.7640    0.5620   -0.7810 h1        1 MOL      0.050972
     17 H6          7.8060    0.6400   -2.9930 hc        1 MOL      0.048988
     18 H7          9.0870   -0.3760   -2.4220 hc        1 MOL      0.048988
     19 N2          6.2470   -2.2310   -0.6640 n         1 MOL     -0.246914
     20 C7          5.6780   -3.6030   -0.8870 c3        1 MOL      0.153511
     21 C8          4.2050   -3.6520   -1.3240 c         1 MOL      0.452101
     22 O5          3.8390   -4.3720   -2.2440 o         1 MOL     -0.562150
     23 C9          5.9960   -4.5460    0.2060 c3        1 MOL     -0.067619
     24 C10         7.5240   -4.6510    0.4300 c3        1 MOL      0.143158
     25 C11         7.8470   -5.7150    1.5720 c3        1 MOL      0.078095
     26 C12         9.3200   -5.5420    2.0410 c3        1 MOL      0.066797
     27 N3          9.5100   -6.0420    3.3820 n4        1 MOL     -0.134890
     28 H8          6.1680   -1.8360    0.2690 hn        1 MOL      0.239865
     29 H9          6.1400   -3.9620   -1.8000 h1        1 MOL      0.053547
     30 H10         5.5710   -5.5300    0.0240 hc        1 MOL      0.006602
     31 H11         5.5840   -4.1370    1.1250 hc        1 MOL      0.006602
     32 H12         7.8790   -3.7300    0.8680 hc        1 MOL     -0.051227
     33 H13         8.0880   -4.8300   -0.4860 hc        1 MOL     -0.051227
     34 H14         7.7030   -6.7530    1.2920 hc        1 MOL     -0.013108
     35 H15         7.1870   -5.5190    2.4120 hc        1 MOL     -0.013108
     36 H16         9.6090   -4.4980    2.0370 hx        1 MOL      0.042340
     37 H17         9.9830   -6.1010    1.3870 hx        1 MOL      0.042340
     38 H18        10.4540   -5.9390    3.7110 hn        1 MOL      0.225483
     39 H19         8.8330   -5.7340    4.0670 hn        1 MOL      0.225483
     40 H20         9.5040   -7.0550    3.3230 hn        1 MOL      0.225483
     41 N4          3.2790   -2.9340   -0.7400 n         1 MOL     -0.344833
     42 C13         3.3360   -2.0260    0.4020 c3        1 MOL      0.035757
     43 C14         3.5430   -0.5020    0.0210 c         1 MOL      0.310555
     44 O6          3.8710   -0.1050   -1.0980 o         1 MOL     -0.412824
     45 C15         2.1270   -2.2920    1.3600 c3        1 MOL     -0.322505
     46 C16         0.8080   -2.5080    0.6570 c         1 MOL      0.679196
     47 O7          0.6300   -1.7870   -0.3690 o         1 MOL     -0.629386
     48 O8          0.0670   -3.3810    1.0950 o         1 MOL     -0.629386
     49 H21         2.4810   -2.8970   -1.3610 hn        1 MOL      0.336559
     50 H22         4.1600   -2.3290    1.0500 h1        1 MOL      0.094253
     51 H23         1.9920   -1.5660    2.1580 hc        1 MOL      0.072338
     52 H24         2.4130   -3.2650    1.7570 hc        1 MOL      0.072338
     53 N5          3.4610    0.3340    1.0240 n         1 MOL     -0.416184
     54 C17         3.7580    1.7700    0.8310 c3        1 MOL      0.058897
     55 C18         2.6670    2.5670    0.0400 c         1 MOL      0.536175
     56 O9          1.6660    1.9980   -0.3530 o         1 MOL     -0.591086
     57 H25         3.3570    0.0240    1.9780 hn        1 MOL      0.300540
     58 H26         4.7230    1.9300    0.3530 h1        1 MOL      0.069263
     59 H27         3.8820    2.3350    1.7590 h1        1 MOL      0.069263
     60 N6          2.9890    3.8050   -0.3850 n         1 MOL     -0.489157
     61 C19         2.0610    4.6420   -1.1360 c3        1 MOL      0.365918
     62 C20         2.4880    6.0940   -0.8280 c         1 MOL      0.379482
     63 O10         3.6580    6.3990   -0.5630 o         1 MOL     -0.518072
     64 C21         2.1240    4.3840   -2.6230 c3        1 MOL     -0.306042
     65 C22         1.7460    3.0110   -3.1060 c         1 MOL      0.820259
     66 O11         2.5760    2.3700   -3.7760 o         1 MOL     -0.713642
     67 O12         0.5650    2.6200   -2.8950 o         1 MOL     -0.713642
     68 H28         3.8920    4.1220   -0.0880 hn        1 MOL      0.278605
     69 H29         1.0190    4.5020   -0.8520 h1        1 MOL     -0.032303
     70 H30         3.0390    4.7230   -3.1120 hc        1 MOL      0.067428
     71 H31         1.4220    5.1080   -3.0260 hc        1 MOL      0.067428
     72 N7          1.5970    7.0980   -0.7740 n         1 MOL     -0.352520
     73 C23         0.1160    7.0550   -0.9870 c3        1 MOL     -0.081511
     74 C24        -0.6910    6.4400    0.2120 c         1 MOL      0.614164
     75 O13        -0.4280    6.7950    1.3840 o         1 MOL     -0.537495
     76 H32         2.0410    7.9880   -0.6210 hn        1 MOL      0.295135
     77 H33        -0.0910    6.4670   -1.8780 h1        1 MOL      0.067754
     78 H34        -0.2800    8.0600   -1.1400 h1        1 MOL      0.067754
     79 N8         -1.6270    5.5220   -0.0710 n         1 MOL     -0.589883
     80 C25        -2.4040    4.8900    0.9110 c3        1 MOL      0.114842
     81 C26        -1.6690    3.5320    1.2730 c         1 MOL      0.669357
     82 O14        -0.9820    2.8700    0.4940 o         1 MOL     -0.499165
     83 C27        -3.8680    4.7310    0.3910 c3        1 MOL      0.224145
     84 C28        -4.8290    4.0800    1.3230 c3        1 MOL     -0.327988
     85 O15        -3.8000    4.0300   -0.8640 oh        1 MOL     -0.666422
     86 H35        -2.0550    5.4100   -0.9740 hn        1 MOL      0.332445
     87 H36        -2.5110    5.5230    1.7890 h1        1 MOL      0.048851
     88 H37        -4.1850    5.7770    0.2930 h1        1 MOL      0.044794
     89 H38        -4.6600    4.0690   -1.2870 ho        1 MOL      0.444089
     90 H39        -4.5430    3.0340    1.4490 hc        1 MOL      0.088881
     91 H40        -4.8280    4.4070    2.3660 hc        1 MOL      0.088881
     92 H41        -5.8170    4.1120    0.8740 hc        1 MOL      0.088881
     93 N9         -1.7020    3.0910    2.5730 n         1 MOL     -0.636625
     94 C29        -0.9850    1.8830    3.1120 c3        1 MOL      0.020145
     95 C30        -1.2410    0.5520    2.3540 c         1 MOL      0.631187
     96 O16        -0.6120    0.1860    1.3590 o         1 MOL     -0.586236
     97 C31         0.4920    2.1860    3.2140 c3        1 MOL      0.023533
     98 C32         0.7960    3.4090    4.0460 c3        1 MOL      0.218135
     99 C33         1.2190    1.0240    3.8720 c3        1 MOL     -0.600198
    100 C34         2.2150    3.8370    3.8530 c3        1 MOL     -0.149286
    101 H42        -2.1610    3.6750    3.2630 hn        1 MOL      0.305052
    102 H43        -1.2850    1.7400    4.1450 h1        1 MOL      0.057731
    103 H44         0.9340    2.3540    2.2350 hc        1 MOL      0.098229
    104 H45         0.6340    3.2430    5.1120 hc        1 MOL     -0.038815
    105 H46         0.1270    4.2480    3.8580 hc        1 MOL     -0.038815
    106 H47         0.9080    0.8160    4.8970 hc        1 MOL      0.160673
    107 H48         1.0500    0.0910    3.3430 hc        1 MOL      0.160673
    108 H49         2.2770    1.2260    3.7320 hc        1 MOL      0.160673
    109 H50         2.3130    4.8240    4.2990 hc        1 MOL      0.024772
    110 H51         2.9680    3.1630    4.2620 hc        1 MOL      0.024772
    111 H52         2.4080    4.0220    2.7900 hc        1 MOL      0.024772
    112 N10        -2.2630   -0.1230    2.8110 n         1 MOL     -0.489710
    113 C35        -2.5480   -1.5710    2.3840 c3        1 MOL     -0.174628
    114 C36        -4.0830   -1.7120    2.1420 c         1 MOL      0.880704
    115 O17        -4.4850   -2.7840    1.7120 o         1 MOL     -0.625106
    116 C37        -2.0880   -2.5090    3.4630 c3        1 MOL      0.333780
    117 C38        -2.6290   -2.3520    4.8310 c3        1 MOL     -0.161682
    118 O18        -0.6970   -2.4370    3.6780 oh        1 MOL     -0.577680
    119 H53        -2.6820    0.2790    3.6360 hn        1 MOL      0.279634
    120 H54        -2.0360   -1.8890    1.4800 h1        1 MOL      0.154837
    121 H55        -2.3820   -3.5040    3.1100 h1        1 MOL      0.017844
    122 H56        -0.2790   -2.5440    2.8210 ho        1 MOL      0.343305
    123 H57        -3.7190   -2.4010    4.7770 hc        1 MOL      0.032005
    124 H58        -2.3030   -3.2030    5.4320 hc        1 MOL      0.032005
    125 H59        -2.3660   -1.4650    5.4080 hc        1 MOL      0.032005
    126 N11        -4.9210   -0.7260    2.4600 n         1 MOL     -0.577886
    127 C39        -6.4050   -0.7540    2.1240 c3        1 MOL     -0.065317
    128 C40        -6.5620   -0.7400    0.5710 c         1 MOL      0.542550
    129 O19        -6.0330    0.1450   -0.1280 o         1 MOL     -0.463101
    130 C41        -7.0200    0.4600    2.8050 c3        1 MOL      0.316781
    131 C42        -8.4890    0.7320    2.3570 c3        1 MOL     -0.463083
    132 O20        -7.0440    0.1950    4.2400 oh        1 MOL     -0.557217
    133 H60        -4.6330    0.1820    2.8030 hn        1 MOL      0.269268
    134 H61        -6.8510   -1.7030    2.4300 h1        1 MOL      0.089178
    135 H62        -6.4350    1.3100    2.4560 h1        1 MOL      0.026857
    136 H63        -6.1560    0.4000    4.5420 ho        1 MOL      0.362245
    137 H64        -9.0240   -0.2040    2.5420 hc        1 MOL      0.136007
    138 H65        -8.8810    1.5620    2.9420 hc        1 MOL      0.136007
    139 H66        -8.5080    0.8570    1.2780 hc        1 MOL      0.136007
    140 N12        -7.2200   -1.7680   -0.0620 n         1 MOL     -0.548498
    141 C43        -7.5090   -1.8630   -1.4910 c3        1 MOL      0.153499
    142 C44        -6.2690   -1.7660   -2.3770 c         1 MOL      0.527321
    143 O21        -6.1400   -1.1160   -3.4110 o         1 MOL     -0.505939
    144 C45        -8.5810   -0.8880   -1.9320 c3        1 MOL     -0.400551
    145 C46       -10.0380   -1.0760   -1.4420 c3        1 MOL      0.151150
    146 C47       -10.4500   -2.5510   -1.3060 c3        1 MOL     -0.160531
    147 C48       -11.8940   -2.7800   -0.7400 c3        1 MOL      0.039697
    148 N13       -12.1710   -4.2060   -0.4710 n4        1 MOL     -0.211839
    149 H67        -7.4490   -2.5920    0.4730 hn        1 MOL      0.297319
    150 H68        -7.8100   -2.8970   -1.6670 h1        1 MOL      0.044470
    151 H69        -8.5000   -0.9220   -3.0230 hc        1 MOL      0.151812
    152 H70        -8.2380    0.1110   -1.6870 hc        1 MOL      0.151812
    153 H71       -10.7630   -0.4870   -2.0190 hc        1 MOL      0.004182
    154 H72       -10.0150   -0.7150   -0.4210 hc        1 MOL      0.004182
    155 H73        -9.7600   -3.1330   -0.6800 hc        1 MOL      0.070202
    156 H74       -10.3370   -3.0240   -2.2770 hc        1 MOL      0.070202
    157 H75       -12.5970   -2.3230   -1.4320 hx        1 MOL      0.069985
    158 H76       -12.0070   -2.1540    0.1490 hx        1 MOL      0.069985
    159 H77       -11.4540   -4.6370    0.1070 hn        1 MOL      0.211143
    160 H78       -13.0400   -4.3240    0.0360 hn        1 MOL      0.211143
    161 H79       -12.2530   -4.6770   -1.3530 hn        1 MOL      0.211143
    162 N14        -5.1190   -2.3610   -1.9390 n         1 MOL     -0.717574
    163 C49        -3.6570   -2.1690   -2.3110 c3        1 MOL      0.530211
    164 C50        -2.6500   -2.3440   -1.1900 c         1 MOL      0.050828
    165 O22        -2.1600   -1.2710   -0.7990 o         1 MOL     -0.528426
    166 C51        -3.1820   -2.9250   -3.5990 c3        1 MOL     -0.328424
    167 C52        -1.7460   -2.7020   -4.1170 c3        1 MOL      0.034981
    168 C53        -1.5030   -1.2400   -4.4490 c         1 MOL      0.637923
    169 O23        -1.2850   -0.4770   -3.4980 o         1 MOL     -0.622025
    170 O24        -1.4370   -0.9650   -5.6630 o         1 MOL     -0.622025
    171 H80        -5.3110   -2.7120   -1.0090 hn        1 MOL      0.310266
    172 H81        -3.5760   -1.1300   -2.6330 h1        1 MOL      0.111864
    173 H82        -3.7730   -2.5790   -4.4530 hc        1 MOL      0.076747
    174 H83        -3.3200   -4.0020   -3.5240 hc        1 MOL      0.076747
    175 H84        -1.4990   -3.4380   -4.8810 hc        1 MOL     -0.002786
    176 H85        -1.1010   -2.9870   -3.2840 hc        1 MOL     -0.002786
    177 N15        -2.2950   -3.4480   -0.5140 n         1 MOL     -0.005338
    178 C54        -2.6170   -4.8960   -0.7090 c3        1 MOL     -0.184250
    179 H86        -3.2400   -5.0120   -1.5960 h1        1 MOL      0.076963
    180 H87        -1.6930   -5.4590   -0.8380 h1        1 MOL      0.076963
    181 H88        -3.1530   -5.2700    0.1620 h1        1 MOL      0.076963
    182 H89        -1.5110   -3.2050    0.0590 hn        1 MOL      0.197106
    183 Ca1        -0.2120    0.4550   -1.3010 Ca        1 MOL      1.821811
    184 O25        -2.4700    1.6600   -2.0080 oh        1 MOL     -1.081002
    185 H90        -3.2160    1.7760   -2.5950 ho        1 MOL      0.501095
    186 H91        -2.5820    2.3330   -1.3430 ho        1 MOL      0.501095
    187 O26         1.7170   -0.1520   -3.0660 oh        1 MOL     -1.081002
    188 H92         2.1080    0.7010   -3.2220 ho        1 MOL      0.501095
    189 H93         2.1500   -0.7430   -3.6830 ho        1 MOL      0.501095
@<TRIPOS>BOND
     1    1    2 1   
     2    1    4 1   
     3    1    5 1   
     4    1    6 1   
     5    2    3 2   
     6    2    7 1   
     7    7    8 1   
     8    7   15 1   
     9    8    9 1   
    10    8   11 1   
    11    8   16 1   
    12    9   10 2   
    13    9   19 1   
    14   11   12 1   
    15   11   17 1   
    16   11   18 1   
    17   12   13 1   
    18   12   14 1   
    19   19   20 1   
    20   19   28 1   
    21   20   21 1   
    22   20   23 1   
    23   20   29 1   
    24   21   22 2   
    25   21   41 1   
    26   23   24 1   
    27   23   30 1   
    28   23   31 1   
    29   24   25 1   
    30   24   32 1   
    31   24   33 1   
    32   25   26 1   
    33   25   34 1   
    34   25   35 1   
    35   26   27 1   
    36   26   36 1   
    37   26   37 1   
    38   27   38 1   
    39   27   39 1   
    40   27   40 1   
    41   41   42 1   
    42   41   49 1   
    43   42   43 1   
    44   42   45 1   
    45   42   50 1   
    46   43   44 2   
    47   43   53 1   
    48   45   46 1   
    49   45   51 1   
    50   45   52 1   
    51   46   47 1   
    52   46   48 1   
    53   53   54 1   
    54   53   57 1   
    55   54   55 1   
    56   54   58 1   
    57   54   59 1   
    58   55   56 2   
    59   55   60 1   
    60   60   61 1   
    61   60   68 1   
    62   61   62 1   
    63   61   64 1   
    64   61   69 1   
    65   62   63 2   
    66   62   72 1   
    67   64   65 1   
    68   64   70 1   
    69   64   71 1   
    70   65   66 1   
    71   65   67 1   
    72   72   73 1   
    73   72   76 1   
    74   73   74 1   
    75   73   77 1   
    76   73   78 1   
    77   74   75 2   
    78   74   79 1   
    79   79   80 1   
    80   79   86 1   
    81   80   81 1   
    82   80   83 1   
    83   80   87 1   
    84   81   82 2   
    85   81   93 1   
    86   83   84 1   
    87   83   85 1   
    88   83   88 1   
    89   84   90 1   
    90   84   91 1   
    91   84   92 1   
    92   85   89 1   
    93   93   94 1   
    94   93  101 1   
    95   94   95 1   
    96   94   97 1   
    97   94  102 1   
    98   95   96 2   
    99   95  112 1   
   100   97   98 1   
   101   97   99 1   
   102   97  103 1   
   103   98  100 1   
   104   98  104 1   
   105   98  105 1   
   106   99  106 1   
   107   99  107 1   
   108   99  108 1   
   109  100  109 1   
   110  100  110 1   
   111  100  111 1   
   112  112  113 1   
   113  112  119 1   
   114  113  114 1   
   115  113  116 1   
   116  113  120 1   
   117  114  115 2   
   118  114  126 1   
   119  116  117 1   
   120  116  118 1   
   121  116  121 1   
   122  117  123 1   
   123  117  124 1   
   124  117  125 1   
   125  118  122 1   
   126  126  127 1   
   127  126  133 1   
   128  127  128 1   
   129  127  130 1   
   130  127  134 1   
   131  128  129 2   
   132  128  140 1   
   133  130  131 1   
   134  130  132 1   
   135  130  135 1   
   136  131  137 1   
   137  131  138 1   
   138  131  139 1   
   139  132  136 1   
   140  140  141 1   
   141  140  149 1   
   142  141  142 1   
   143  141  144 1   
   144  141  150 1   
   145  142  143 2   
   146  142  162 1   
   147  144  145 1   
   148  144  151 1   
   149  144  152 1   
   150  145  146 1   
   151  145  153 1   
   152  145  154 1   
   153  146  147 1   
   154  146  155 1   
   155  146  156 1   
   156  147  148 1   
   157  147  157 1   
   158  147  158 1   
   159  148  159 1   
   160  148  160 1   
   161  148  161 1   
   162  162  163 1   
   163  162  171 1   
   164  163  164 1   
   165  163  166 1   
   166  163  172 1   
   167  164  165 2   
   168  164  177 1   
   169  166  167 1   
   170  166  173 1   
   171  166  174 1   
   172  167  168 1   
   173  167  175 1   
   174  167  176 1   
   175  168  169 1   
   176  168  170 1   
   177  177  178 1   
   178  177  182 1   
   179  178  179 1   
   180  178  180 1   
   181  178  181 1   
   182  184  185 1   
   183  184  186 1   
   184  187  188 1   
   185  187  189 1   
@<TRIPOS>SUBSTRUCTURE
     1 MOL         1 TEMP              0 ****  ****    0 ROOT
