@<TRIPOS>MOLECULE
MOL
  192   187     1     0     0
SMALL
resp


@<TRIPOS>ATOM
      1 C1          4.5740    4.2140   -2.9380 c3        1 MOL     -0.406567
      2 C2          5.3000    3.1770   -2.0350 c         1 MOL      0.760740
      3 O1          4.7330    2.8200   -1.0250 o         1 MOL     -0.638567
      4 H1          4.1810    3.7120   -3.8220 hc        1 MOL      0.103528
      5 H2          3.7520    4.6670   -2.3830 hc        1 MOL      0.103528
      6 H3          5.2780    4.9870   -3.2420 hc        1 MOL      0.103528
      7 N1          6.5390    2.8260   -2.3360 n         1 MOL     -0.703787
      8 C3          7.3010    1.7040   -1.7430 c3        1 MOL      0.051474
      9 C4          6.4020    0.4560   -1.5830 c         1 MOL      0.438683
     10 O2          6.0640    0.0690   -0.4570 o         1 MOL     -0.724883
     11 C5          8.0260    2.3130   -0.4640 c3        1 MOL     -0.108955
     12 C6          7.3350    3.2790    0.4660 c         1 MOL      0.854310
     13 O3          6.5940    2.7170    1.2760 o         1 MOL     -0.749899
     14 O4          7.7530    4.4110    0.6400 o         1 MOL     -0.749899
     15 H4          7.0000    3.2690   -3.1060 hn        1 MOL      0.354808
     16 H5          8.0170    1.4120   -2.5180 h1        1 MOL      0.097010
     17 H6          8.9520    2.8190   -0.7390 hc        1 MOL      0.018399
     18 H7          8.3400    1.4680    0.1450 hc        1 MOL      0.018399
     19 N2          6.0530   -0.1610   -2.7300 n         1 MOL     -0.482659
     20 C7          5.1570   -1.3670   -2.9400 c3        1 MOL      0.242053
     21 C8          5.8320   -2.6720   -2.4100 c         1 MOL      0.299057
     22 O5          5.9440   -3.6410   -3.1670 o         1 MOL     -0.528314
     23 C9          3.6920   -1.1220   -2.3690 c3        1 MOL     -0.008138
     24 C10         2.7780   -2.3550   -2.3530 c3        1 MOL      0.207157
     25 C11         3.0250    0.1320   -3.0230 c3        1 MOL     -0.453049
     26 C12         2.1770   -2.7560   -3.7460 c3        1 MOL     -0.363627
     27 H8          6.2630    0.4490   -3.5060 hn        1 MOL      0.283949
     28 H9          5.1100   -1.6310   -4.0020 h1        1 MOL      0.013849
     29 H10         3.8630   -0.8480   -1.3300 hc        1 MOL      0.060610
     30 H11         2.0100   -2.2020   -1.5960 hc        1 MOL      0.008900
     31 H12         3.3820   -3.2340   -2.1030 hc        1 MOL      0.008900
     32 H13         3.4730    1.1050   -2.8150 hc        1 MOL      0.100446
     33 H14         3.0400   -0.0280   -4.1020 hc        1 MOL      0.100446
     34 H15         1.9580    0.2530   -2.8480 hc        1 MOL      0.100446
     35 H16         2.8110   -2.5770   -4.6160 hc        1 MOL      0.075320
     36 H17         1.8830   -3.8020   -3.7000 hc        1 MOL      0.075320
     37 H18         1.3430   -2.0730   -3.8840 hc        1 MOL      0.075320
     38 N3          6.4670   -2.5990   -1.2080 n         1 MOL     -0.098492
     39 C13         7.2250   -3.6630   -0.6250 c3        1 MOL     -0.009405
     40 C14         6.4340   -4.9840   -0.3920 c         1 MOL      0.609933
     41 O6          7.0270   -6.0320   -0.5300 o         1 MOL     -0.617179
     42 C15         8.0350   -3.1570    0.5590 c3        1 MOL     -0.223582
     43 C16         8.6000   -1.7710    0.3470 c         1 MOL      0.823295
     44 O7          9.0870   -1.5620   -0.7710 o         1 MOL     -0.720367
     45 O8          8.6960   -1.0570    1.3770 o         1 MOL     -0.720367
     46 H19         6.3620   -1.7480   -0.6850 hn        1 MOL      0.285982
     47 H20         7.9290   -4.0220   -1.3790 h1        1 MOL      0.059501
     48 H21         8.9070   -3.7890    0.6980 hc        1 MOL      0.037719
     49 H22         7.3450   -3.2080    1.3990 hc        1 MOL      0.037719
     50 N4          5.1510   -5.0590   -0.0840 n         1 MOL     -0.523746
     51 C17         4.3310   -4.0150    0.5110 c3        1 MOL     -0.122960
     52 C18         2.9030   -4.5270    0.7470 c         1 MOL      0.727531
     53 O9          2.4590   -5.4230    0.0600 o         1 MOL     -0.581876
     54 H23         4.7960   -5.9740    0.1230 hn        1 MOL      0.301789
     55 H24         4.2990   -3.1660   -0.1710 h1        1 MOL      0.115026
     56 H25         4.9160   -3.7780    1.4030 h1        1 MOL      0.115026
     57 N5          2.0860   -4.0420    1.7040 n         1 MOL     -0.713950
     58 C19         2.0730   -2.7070    2.4540 c3        1 MOL      0.326855
     59 C20         2.2680   -1.4380    1.6030 c         1 MOL      0.252014
     60 O10         3.3900   -1.0490    1.2650 o         1 MOL     -0.544857
     61 C21         3.1110   -2.6710    3.6310 c3        1 MOL     -0.398345
     62 C22         2.9280   -1.5030    4.5590 c         1 MOL      0.780151
     63 O11         3.6760   -1.5090    5.6110 o         1 MOL     -0.715431
     64 O12         1.9650   -0.7330    4.4580 o         1 MOL     -0.715431
     65 H26         1.1490   -4.3500    1.4820 hn        1 MOL      0.312290
     66 H27         1.1380   -2.5940    3.0040 h1        1 MOL      0.078808
     67 H28         4.1150   -2.7390    3.2140 hc        1 MOL      0.084637
     68 H29         2.8740   -3.5550    4.2070 hc        1 MOL      0.084637
     69 N6          1.2520   -0.6250    1.3030 n         1 MOL      0.074668
     70 C23        -0.1990   -1.0180    1.5310 c3        1 MOL     -0.245661
     71 C24        -0.7440   -2.1570    0.6300 c         1 MOL      0.617897
     72 O13        -0.0990   -2.8270   -0.1760 o         1 MOL     -0.561357
     73 H30         1.5200    0.0960    0.6510 hn        1 MOL      0.091524
     74 H31        -0.8030   -0.1310    1.3300 h1        1 MOL      0.083404
     75 H32        -0.3080   -1.3810    2.5510 h1        1 MOL      0.083404
     76 N7         -2.0420   -2.4810    0.6840 n         1 MOL     -0.460248
     77 C25        -2.6540   -3.7220    0.0730 c3        1 MOL      0.135792
     78 C26        -3.1670   -3.5300   -1.3340 c         1 MOL      0.320695
     79 O14        -3.7140   -4.5030   -1.8860 o         1 MOL     -0.508361
     80 C27        -3.6980   -4.2170    1.1060 c3        1 MOL     -0.304476
     81 C28        -5.1330   -3.5690    0.9550 c3        1 MOL     -0.275680
     82 C29        -6.1950   -4.3690    1.7930 c         1 MOL      0.640974
     83 N8         -7.1270   -4.9640    1.1410 n         1 MOL     -0.685559
     84 O15        -6.3570   -4.3430    3.0050 o         1 MOL     -0.572182
     85 H33        -2.6660   -1.9320    1.2560 hn        1 MOL      0.255310
     86 H34        -1.9190   -4.5160   -0.0450 h1        1 MOL      0.130363
     87 H35        -3.3160   -4.1430    2.1260 hc        1 MOL      0.116436
     88 H36        -3.8000   -5.2710    0.8590 hc        1 MOL      0.116436
     89 H37        -5.4280   -3.5620   -0.0990 hc        1 MOL      0.162519
     90 H38        -5.0710   -2.5580    1.3510 hc        1 MOL      0.162519
     91 H39        -7.2440   -4.8700    0.1440 hn        1 MOL      0.324997
     92 H40        -7.7410   -5.5360    1.7090 hn        1 MOL      0.324997
     93 N9         -3.1190   -2.3300   -1.9600 n         1 MOL     -0.102940
     94 C30        -3.5190   -1.8850   -3.2960 c3        1 MOL     -0.111341
     95 C31        -5.0120   -1.5580   -3.3350 c         1 MOL      0.417273
     96 O16        -5.5770   -1.4210   -4.4600 o         1 MOL     -0.550974
     97 C32        -2.6230   -0.7000   -3.7700 c3        1 MOL      0.129245
     98 C33        -1.3180   -1.3500   -4.1350 c3        1 MOL     -0.210276
     99 C34        -2.4120    0.4800   -2.7440 c3        1 MOL     -0.210276
    100 H41        -2.7300   -1.5700   -1.4140 hn        1 MOL      0.144097
    101 H42        -3.4090   -2.7610   -3.9270 h1        1 MOL      0.128652
    102 H43        -3.0140   -0.3090   -4.7030 hc        1 MOL      0.031052
    103 H44        -1.4760   -2.1680   -4.8350 hc        1 MOL      0.052000
    104 H45        -0.5470   -0.7170   -4.5620 hc        1 MOL      0.052000
    105 H46        -0.8040   -1.7350   -3.2550 hc        1 MOL      0.052000
    106 H47        -1.8890    1.2780   -3.2770 hc        1 MOL      0.052000
    107 H48        -3.3510    0.8410   -2.3330 hc        1 MOL      0.052000
    108 H49        -1.8440    0.0620   -1.9190 hc        1 MOL      0.052000
    109 N10        -5.6020   -1.2300   -2.2020 n         1 MOL     -0.130896
    110 C35        -6.9660   -0.7080   -2.0590 c3        1 MOL     -0.052323
    111 C36        -7.0440    0.5810   -1.3130 c         1 MOL      0.572527
    112 O17        -8.1300    1.0870   -1.1990 o         1 MOL     -0.529815
    113 C37        -7.9190   -1.7790   -1.3910 c3        1 MOL     -0.397611
    114 C38        -8.0090   -3.0920   -2.1630 c         1 MOL      0.618016
    115 N11        -8.3100   -2.9080   -3.4780 n         1 MOL     -0.726888
    116 O18        -7.8360   -4.1940   -1.6840 o         1 MOL     -0.521997
    117 H50        -5.1170   -1.2010   -1.3060 hn        1 MOL      0.106129
    118 H51        -7.4330   -0.4350   -3.0030 h1        1 MOL      0.092822
    119 H52        -8.8990   -1.3500   -1.1430 hc        1 MOL      0.157259
    120 H53        -7.3730   -1.9370   -0.4650 hc        1 MOL      0.157259
    121 H54        -8.1920   -1.9800   -3.8590 hn        1 MOL      0.353183
    122 H55        -8.7140   -3.7080   -3.9670 hn        1 MOL      0.353183
    123 N12        -5.9450    1.2150   -0.7780 n         1 MOL     -0.514016
    124 C39        -6.0630    2.3410    0.1370 c3        1 MOL      0.220225
    125 C40        -4.7480    3.1320    0.2920 c         1 MOL      0.326858
    126 O19        -3.6990    2.6160   -0.1040 o         1 MOL     -0.445857
    127 C41        -6.3180    1.8070    1.5180 c3        1 MOL     -0.141981
    128 C42        -7.4890    0.8310    1.8180 ca        1 MOL      0.019165
    129 C43        -8.8410    1.2900    1.8890 ca        1 MOL     -0.127580
    130 C44        -7.1280   -0.4920    2.1600 ca        1 MOL     -0.127580
    131 C45        -9.8140    0.3750    2.1480 ca        1 MOL     -0.235866
    132 C46        -8.1520   -1.4230    2.3100 ca        1 MOL     -0.235866
    133 C47        -9.5060   -0.9800    2.3740 ca        1 MOL      0.339424
    134 O20       -10.5420   -1.8420    2.6250 oh        1 MOL     -0.517540
    135 H56        -5.0770    0.6980   -0.8390 hn        1 MOL      0.282395
    136 H57        -6.7950    3.0930   -0.1840 h1        1 MOL      0.037599
    137 H58        -6.4790    2.6120    2.2410 hc        1 MOL      0.075019
    138 H59        -5.4040    1.3240    1.8570 hc        1 MOL      0.075019
    139 H60        -9.1290    2.2880    1.5890 ha        1 MOL      0.108650
    140 H61        -6.0990   -0.8060    2.1870 ha        1 MOL      0.108650
    141 H62       -10.8570    0.6410    2.0370 ha        1 MOL      0.118301
    142 H63        -7.9410   -2.4770    2.4470 ha        1 MOL      0.118301
    143 H64       -11.3390   -1.4220    2.9240 ho        1 MOL      0.362356
    144 N13        -4.7520    4.2900    0.8970 n         1 MOL     -0.454828
    145 C48        -3.6120    5.0010    1.5000 c3        1 MOL      0.111165
    146 C49        -2.4120    5.4690    0.6030 c         1 MOL      0.277957
    147 O21        -1.8420    6.5470    0.9260 o         1 MOL     -0.474236
    148 C50        -3.1640    4.2870    2.7980 c3        1 MOL      0.153202
    149 C51        -2.2920    3.0220    2.6130 c3        1 MOL     -0.289419
    150 C52        -1.5830    2.5320    3.9150 c         1 MOL      0.696563
    151 O22        -1.1340    3.3840    4.6890 o         1 MOL     -0.686115
    152 O23        -1.6300    1.3520    4.3460 o         1 MOL     -0.686115
    153 H65        -5.7010    4.6250    0.9570 hn        1 MOL      0.281366
    154 H66        -4.0970    5.9140    1.8620 h1        1 MOL      0.026157
    155 H67        -4.0160    4.1030    3.4460 hc        1 MOL     -0.013484
    156 H68        -2.5630    5.0660    3.2800 hc        1 MOL     -0.013484
    157 H69        -1.5610    3.2360    1.8380 hc        1 MOL      0.040332
    158 H70        -2.8530    2.1950    2.1890 hc        1 MOL      0.040332
    159 N14        -2.0490    4.7120   -0.4210 n         1 MOL     -0.017624
    160 C53        -0.9480    5.0670   -1.2700 c3        1 MOL     -0.409134
    161 C54        -1.2650    6.1150   -2.3780 c         1 MOL      0.509899
    162 O24        -0.4220    6.8560   -2.9130 o         1 MOL     -0.532243
    163 C55        -0.2720    3.7790   -1.8150 c3        1 MOL      0.077858
    164 C56         0.0110    2.6250   -0.9030 c3        1 MOL      0.264601
    165 C57         1.1750    2.7040    0.1350 c         1 MOL      0.433861
    166 O25         1.2550    3.7500    0.9000 o         1 MOL     -0.580384
    167 O26         2.1130    1.8130    0.1330 o         1 MOL     -0.580384
    168 H71        -2.5030    3.8580   -0.7100 hn        1 MOL      0.198334
    169 H72        -0.1800    5.5390   -0.6580 h1        1 MOL      0.207714
    170 H73         0.5980    4.1270   -2.3690 hc        1 MOL     -0.003398
    171 H74        -0.8080    3.3710   -2.6810 hc        1 MOL     -0.003398
    172 H75         0.1620    1.7030   -1.4650 hc        1 MOL     -0.060728
    173 H76        -0.9350    2.4130   -0.4020 hc        1 MOL     -0.060728
    174 N15        -2.5510    6.1770   -2.7600 n         1 MOL     -0.198919
    175 C58        -3.0540    7.0310   -3.7860 c3        1 MOL     -0.165080
    176 H77        -3.4130    6.4260   -4.6190 h1        1 MOL      0.075288
    177 H78        -3.8750    7.6290   -3.3920 h1        1 MOL      0.075288
    178 H79        -2.2580    7.6900   -4.1340 h1        1 MOL      0.075288
    179 H80        -3.1350    5.6220   -2.1440 hn        1 MOL      0.165570
    180 Ca1         4.3990    1.4590    1.2790 Ca        1 MOL      1.816035
    181 O27         5.9640   -0.8550    2.3840 oh        1 MOL     -0.797981
    182 O28         2.6870    1.5180    3.2780 oh        1 MOL     -0.797981
    183 H81         5.9680   -0.5710    3.3000 ho        1 MOL      0.378575
    184 H82         2.3690    0.7250    3.6990 ho        1 MOL      0.378575
    185 H83         6.8810   -0.8610    2.1190 ho        1 MOL      0.378575
    186 H84         2.1080    2.2070    3.5950 ho        1 MOL      0.378575
    187 O29         5.4540    2.0480    3.8460 oh        1 MOL     -0.797981
    188 H85         5.8480    2.7150    4.4070 ho        1 MOL      0.378575
    189 H86         5.6170    1.2200    4.3020 ho        1 MOL      0.378575
    190 O30         3.9310    3.9510    1.4500 oh        1 MOL     -0.797981
    191 H87         4.2460    4.3320    0.6290 ho        1 MOL      0.378575
    192 H88         2.9770    3.9900    1.3750 ho        1 MOL      0.378575
@<TRIPOS>BOND
     1    1    2 1   
     2    1    4 1   
     3    1    5 1   
     4    1    6 1   
     5    2    3 2   
     6    2    7 1   
     7    7    8 1   
     8    7   15 1   
     9    8    9 1   
    10    8   11 1   
    11    8   16 1   
    12    9   10 2   
    13    9   19 1   
    14   11   12 1   
    15   11   17 1   
    16   11   18 1   
    17   12   13 1   
    18   12   14 1   
    19   19   20 1   
    20   19   27 1   
    21   20   21 1   
    22   20   23 1   
    23   20   28 1   
    24   21   22 2   
    25   21   38 1   
    26   23   24 1   
    27   23   25 1   
    28   23   29 1   
    29   24   26 1   
    30   24   30 1   
    31   24   31 1   
    32   25   32 1   
    33   25   33 1   
    34   25   34 1   
    35   26   35 1   
    36   26   36 1   
    37   26   37 1   
    38   38   39 1   
    39   38   46 1   
    40   39   40 1   
    41   39   42 1   
    42   39   47 1   
    43   40   41 2   
    44   40   50 1   
    45   42   43 1   
    46   42   48 1   
    47   42   49 1   
    48   43   44 1   
    49   43   45 1   
    50   50   51 1   
    51   50   54 1   
    52   51   52 1   
    53   51   55 1   
    54   51   56 1   
    55   52   53 2   
    56   52   57 1   
    57   57   58 1   
    58   57   65 1   
    59   58   59 1   
    60   58   61 1   
    61   58   66 1   
    62   59   60 2   
    63   59   69 1   
    64   61   62 1   
    65   61   67 1   
    66   61   68 1   
    67   62   63 1   
    68   62   64 1   
    69   69   70 1   
    70   69   73 1   
    71   70   71 1   
    72   70   74 1   
    73   70   75 1   
    74   71   72 2   
    75   71   76 1   
    76   76   77 1   
    77   76   85 1   
    78   77   78 1   
    79   77   80 1   
    80   77   86 1   
    81   78   79 2   
    82   78   93 1   
    83   80   81 1   
    84   80   87 1   
    85   80   88 1   
    86   81   82 1   
    87   81   89 1   
    88   81   90 1   
    89   82   83 1   
    90   82   84 2   
    91   83   91 1   
    92   83   92 1   
    93   93   94 1   
    94   93  100 1   
    95   94   95 1   
    96   94   97 1   
    97   94  101 1   
    98   95   96 2   
    99   95  109 1   
   100   97   98 1   
   101   97   99 1   
   102   97  102 1   
   103   98  103 1   
   104   98  104 1   
   105   98  105 1   
   106   99  106 1   
   107   99  107 1   
   108   99  108 1   
   109  109  110 1   
   110  109  117 1   
   111  110  111 1   
   112  110  113 1   
   113  110  118 1   
   114  111  112 2   
   115  111  123 1   
   116  113  114 1   
   117  113  119 1   
   118  113  120 1   
   119  114  115 1   
   120  114  116 2   
   121  115  121 1   
   122  115  122 1   
   123  123  124 1   
   124  123  135 1   
   125  124  125 1   
   126  124  127 1   
   127  124  136 1   
   128  125  126 2   
   129  125  144 1   
   130  127  128 1   
   131  127  137 1   
   132  127  138 1   
   133  128  129 ar  
   134  128  130 ar  
   135  129  131 ar  
   136  129  139 1   
   137  130  132 ar  
   138  130  140 1   
   139  131  133 ar  
   140  131  141 1   
   141  132  133 ar  
   142  132  142 1   
   143  133  134 1   
   144  134  143 1   
   145  144  145 1   
   146  144  153 1   
   147  145  146 1   
   148  145  148 1   
   149  145  154 1   
   150  146  147 2   
   151  146  159 1   
   152  148  149 1   
   153  148  155 1   
   154  148  156 1   
   155  149  150 1   
   156  149  157 1   
   157  149  158 1   
   158  150  151 1   
   159  150  152 1   
   160  159  160 1   
   161  159  168 1   
   162  160  161 1   
   163  160  163 1   
   164  160  169 1   
   165  161  162 2   
   166  161  174 1   
   167  163  164 1   
   168  163  170 1   
   169  163  171 1   
   170  164  165 1   
   171  164  172 1   
   172  164  173 1   
   173  165  166 1   
   174  165  167 1   
   175  174  175 1   
   176  174  179 1   
   177  175  176 1   
   178  175  177 1   
   179  175  178 1   
   180  181  183 1   
   181  181  185 1   
   182  182  184 1   
   183  182  186 1   
   184  187  188 1   
   185  187  189 1   
   186  190  191 1   
   187  190  192 1   
@<TRIPOS>SUBSTRUCTURE
     1 MOL         1 TEMP              0 ****  ****    0 ROOT
