@<TRIPOS>MOLECULE
MOL
  189   185     1     0     0
SMALL
resp


@<TRIPOS>ATOM
      1 C1         12.3120    5.4450   -1.8670 c3        1 MOL     -0.261414
      2 C2         12.0370    4.1520   -0.9870 c         1 MOL      0.574270
      3 O1         12.5160    3.0540   -1.3390 o         1 MOL     -0.563544
      4 H1         12.4490    5.1530   -2.9080 hc        1 MOL      0.069931
      5 H2         11.4630    6.1250   -1.7890 hc        1 MOL      0.069931
      6 H3         13.2120    5.9440   -1.5080 hc        1 MOL      0.069931
      7 N1         11.3130    4.3500    0.1210 n         1 MOL     -0.108560
      8 C3         10.8490    3.3230    1.0680 c3        1 MOL     -0.691682
      9 C4          9.7090    2.4230    0.5290 c         1 MOL      0.556405
     10 O2          8.6140    2.8760   -0.0350 o         1 MOL     -0.509115
     11 C5         10.4960    3.8750    2.3710 c3        1 MOL      0.184228
     12 C6          9.5600    5.0150    2.3960 c         1 MOL      0.783110
     13 O3          8.7010    5.1450    1.5320 o         1 MOL     -0.751012
     14 O4          9.6350    5.7790    3.3630 o         1 MOL     -0.751012
     15 H4         10.7730    5.1920    0.1360 hn        1 MOL      0.123783
     16 H5         11.7120    2.6660    1.2320 h1        1 MOL      0.220586
     17 H6         11.4040    4.1840    2.8820 hc        1 MOL      0.029512
     18 H7          9.9890    3.1830    3.0540 hc        1 MOL      0.029512
     19 N2          9.9700    1.1040    0.4470 n         1 MOL     -0.306898
     20 C7          9.0730    0.0550   -0.1880 c3        1 MOL     -0.112902
     21 C8          7.9510   -0.4260    0.7860 c         1 MOL      0.654749
     22 O5          8.1430   -0.6510    2.0260 o         1 MOL     -0.575131
     23 C9          9.8200   -1.1140   -0.7670 c3        1 MOL     -0.088214
     24 C10         8.8730   -2.2220   -1.3290 c3        1 MOL     -0.038226
     25 C11         9.7800   -3.4350   -1.5780 c3        1 MOL      0.085104
     26 C12         8.8770   -4.6220   -2.1110 c3        1 MOL     -0.108790
     27 N3          9.6390   -5.8210   -2.4020 n4        1 MOL     -0.020313
     28 H8         10.7460    0.7950    1.0080 hn        1 MOL      0.272544
     29 H9          8.5960    0.5410   -1.0280 h1        1 MOL      0.154549
     30 H10        10.4070   -1.4970    0.0700 hc        1 MOL      0.055713
     31 H11        10.5890   -0.9200   -1.5120 hc        1 MOL      0.055713
     32 H12         8.3100   -1.8680   -2.2000 hc        1 MOL      0.029283
     33 H13         8.1780   -2.5840   -0.5760 hc        1 MOL      0.029283
     34 H14        10.4370   -3.7270   -0.7590 hc        1 MOL      0.005534
     35 H15        10.3910   -3.1030   -2.4180 hc        1 MOL      0.005534
     36 H16         8.5800   -4.2460   -3.0880 hx        1 MOL      0.102003
     37 H17         8.0440   -4.8080   -1.4270 hx        1 MOL      0.102003
     38 H18         9.8020   -6.3730   -1.5660 hn        1 MOL      0.187601
     39 H19         9.1930   -6.4340   -3.0750 hn        1 MOL      0.187601
     40 H20        10.5980   -5.7230   -2.7100 hn        1 MOL      0.187601
     41 N4          6.7050   -0.2990    0.3090 n         1 MOL     -0.623007
     42 C13         5.4160   -0.3760    1.0050 c3        1 MOL      0.388008
     43 C14         4.2750   -0.8070    0.1350 c         1 MOL      0.301266
     44 O6          4.3840   -0.8020   -1.1060 o         1 MOL     -0.536612
     45 C15         5.1280    0.9720    1.6720 c3        1 MOL     -0.025407
     46 C16         5.5860    2.2520    0.9910 c         1 MOL      0.710987
     47 O7          5.6130    2.3510   -0.2680 o         1 MOL     -0.755640
     48 O8          5.8270    3.2330    1.7410 o         1 MOL     -0.755640
     49 H21         6.7150   -0.0840   -0.6750 hn        1 MOL      0.317952
     50 H22         5.6110   -1.1460    1.7430 h1        1 MOL      0.015693
     51 H23         5.5700    0.9870    2.6730 hc        1 MOL      0.016296
     52 H24         4.0570    0.9670    1.8840 hc        1 MOL      0.016296
     53 N5          3.1850   -1.3210    0.6660 n         1 MOL     -0.208911
     54 C17         2.9380   -1.8500    1.9500 c3        1 MOL     -0.097057
     55 C18         2.2970   -3.2650    2.0530 c         1 MOL      0.559133
     56 O9          2.4460   -4.0130    1.1010 o         1 MOL     -0.525966
     57 H25         2.4480   -1.4070   -0.0260 hn        1 MOL      0.240118
     58 H26         2.2710   -1.1330    2.4380 h1        1 MOL      0.045319
     59 H27         3.8550   -1.7970    2.5380 h1        1 MOL      0.045319
     60 N6          1.7390   -3.6350    3.2430 n         1 MOL     -0.379803
     61 C19         1.1090   -4.8970    3.5400 c3        1 MOL     -0.084294
     62 C20        -0.0870   -5.2130    2.5880 c         1 MOL      0.494459
     63 O10        -1.0540   -4.4820    2.4180 o         1 MOL     -0.489424
     64 C21         0.4800   -4.9570    4.9430 c3        1 MOL     -0.157989
     65 C22         0.1020   -6.4270    5.2710 c         1 MOL      0.599514
     66 O11        -1.1290   -6.7260    5.3460 o         1 MOL     -0.622329
     67 O12         1.0330   -7.2800    5.4670 o         1 MOL     -0.622329
     68 H28         1.8850   -2.8500    3.8820 hn        1 MOL      0.270772
     69 H29         1.7830   -5.7500    3.4960 h1        1 MOL      0.077315
     70 H30        -0.4190   -4.3660    5.1000 hc        1 MOL      0.066442
     71 H31         1.2210   -4.5240    5.6140 hc        1 MOL      0.066442
     72 N7         -0.0500   -6.3330    1.8430 n         1 MOL     -0.223857
     73 C23        -0.9390   -6.7270    0.7250 c3        1 MOL     -0.324993
     74 C24        -0.7650   -6.0270   -0.6310 c         1 MOL      0.600260
     75 O13        -1.6170   -6.2430   -1.4810 o         1 MOL     -0.594160
     76 H32         0.8110   -6.8490    1.9630 hn        1 MOL      0.211572
     77 H33        -1.9650   -6.6740    1.1010 h1        1 MOL      0.166368
     78 H34        -0.7510   -7.7550    0.4030 h1        1 MOL      0.166368
     79 N8          0.1570   -5.0910   -0.7220 n         1 MOL     -0.328159
     80 C25         0.1630   -4.0730   -1.8030 c3        1 MOL      0.007040
     81 C26        -0.2040   -2.7050   -1.2880 c         1 MOL      0.499777
     82 O14         0.2740   -2.2500   -0.2950 o         1 MOL     -0.485262
     83 C27         1.5030   -3.9120   -2.5100 c3        1 MOL      0.484553
     84 C28         2.0940   -5.1660   -3.1670 c3        1 MOL     -0.303592
     85 O15         1.3720   -3.0630   -3.5750 oh        1 MOL     -0.700147
     86 H35         0.8800   -4.9730   -0.0170 hn        1 MOL      0.192438
     87 H36        -0.5660   -4.3480   -2.5590 h1        1 MOL      0.075964
     88 H37         2.1990   -3.3640   -1.8770 h1        1 MOL     -0.068185
     89 H38         2.2310   -2.7320   -3.8530 ho        1 MOL      0.425770
     90 H39         1.2320   -5.7580   -3.4570 hc        1 MOL      0.058393
     91 H40         2.8860   -5.0040   -3.8960 hc        1 MOL      0.058393
     92 H41         2.5880   -5.7370   -2.3830 hc        1 MOL      0.058393
     93 N9         -1.0280   -1.9440   -2.0310 n         1 MOL     -0.207820
     94 C29        -1.4460   -0.6220   -1.7280 c3        1 MOL     -0.242437
     95 C30        -2.7390   -0.6350   -0.9440 c         1 MOL      0.659364
     96 O16        -2.9710    0.1420    0.0020 o         1 MOL     -0.538390
     97 C31        -1.3920    0.2190   -3.0230 c3        1 MOL      0.180844
     98 C32        -0.1180    0.1120   -3.8600 c3        1 MOL      0.053261
     99 C33        -1.4610    1.6640   -2.5790 c3        1 MOL     -0.405153
    100 C34         1.2200    0.3550   -3.1100 c3        1 MOL     -0.342708
    101 H42        -1.4890   -2.3390   -2.8370 hn        1 MOL      0.222809
    102 H43        -0.7060   -0.2400   -1.0280 h1        1 MOL      0.094069
    103 H44        -2.2730   -0.0000   -3.6220 hc        1 MOL     -0.006718
    104 H45        -0.2080    0.7670   -4.7190 hc        1 MOL     -0.012556
    105 H46        -0.1680   -0.8460   -4.3780 hc        1 MOL     -0.012556
    106 H47        -2.3930    1.8430   -2.0520 hc        1 MOL      0.105236
    107 H48        -0.6190    2.0370   -1.9990 hc        1 MOL      0.105236
    108 H49        -1.3910    2.2290   -3.5070 hc        1 MOL      0.105236
    109 H50         1.3900    1.4070   -3.3270 hc        1 MOL      0.113785
    110 H51         1.1370    0.3970   -2.0210 hc        1 MOL      0.113785
    111 H52         2.0250   -0.3110   -3.4460 hc        1 MOL      0.113785
    112 N10        -3.6740   -1.4810   -1.4250 n         1 MOL     -0.358465
    113 C35        -4.9330   -1.8290   -0.7840 c3        1 MOL     -0.313548
    114 C36        -6.0710   -2.1040   -1.9180 c         1 MOL      0.664231
    115 O17        -5.7790   -2.4740   -3.0420 o         1 MOL     -0.507360
    116 C37        -4.7540   -3.0630    0.1360 c3        1 MOL      0.405073
    117 C38        -4.2350   -4.3440   -0.6290 c3        1 MOL      0.006405
    118 O18        -3.7960   -2.6280    1.0650 oh        1 MOL     -0.600404
    119 H53        -3.5200   -2.0640   -2.2320 hn        1 MOL      0.232352
    120 H54        -5.2660   -0.9660   -0.2010 h1        1 MOL      0.115637
    121 H55        -5.6590   -3.3600    0.6850 h1        1 MOL     -0.021476
    122 H56        -3.8120   -1.6780    1.1900 ho        1 MOL      0.384902
    123 H57        -3.7980   -5.0510    0.0800 hc        1 MOL      0.008249
    124 H58        -5.1130   -4.8380   -1.0330 hc        1 MOL      0.008249
    125 H59        -3.4780   -4.1330   -1.3790 hc        1 MOL      0.008249
    126 N11        -7.2850   -1.8410   -1.4540 n         1 MOL     -0.526592
    127 C39        -8.4820   -1.6790   -2.2780 c3        1 MOL      0.023259
    128 C40        -9.0490   -0.3160   -2.2350 c         1 MOL      0.606420
    129 O19        -9.4910    0.1430   -3.2810 o         1 MOL     -0.573137
    130 C41        -9.6300   -2.6720   -1.9150 c3        1 MOL      0.337396
    131 C42       -10.1920   -2.6290   -0.3990 c3        1 MOL     -0.391026
    132 O20        -9.1110   -3.9260   -2.0690 oh        1 MOL     -0.593696
    133 H60        -7.4280   -1.5530   -0.4980 hn        1 MOL      0.289259
    134 H61        -8.2440   -1.8330   -3.3250 h1        1 MOL      0.082258
    135 H62       -10.4360   -2.4780   -2.6130 h1        1 MOL     -0.007991
    136 H63        -9.2960   -4.3180   -2.9270 ho        1 MOL      0.404542
    137 H64       -10.7850   -1.7210   -0.3220 hc        1 MOL      0.115059
    138 H65       -10.8530   -3.4960   -0.2940 hc        1 MOL      0.115059
    139 H66        -9.4840   -2.5520    0.4220 hc        1 MOL      0.115059
    140 N12        -9.0950    0.3430   -1.0920 n         1 MOL     -0.440416
    141 C43        -9.5150    1.8110   -0.8610 c3        1 MOL      0.002189
    142 C44        -8.6830    2.5460    0.1090 c         1 MOL      0.536747
    143 O21        -8.1290    1.9420    1.0930 o         1 MOL     -0.487709
    144 C45       -10.9870    1.8750   -0.4730 c3        1 MOL     -0.081407
    145 C46       -11.3380    1.1470    0.8350 c3        1 MOL     -0.077080
    146 C47       -12.8150    1.0590    0.9440 c3        1 MOL     -0.093426
    147 C48       -13.4000    0.7410    2.3280 c3        1 MOL     -0.042236
    148 N13       -13.0230    1.7470    3.3700 n4        1 MOL     -0.307473
    149 H67        -8.6740   -0.1460   -0.3150 hn        1 MOL      0.218224
    150 H68        -9.5260    2.3200   -1.8230 h1        1 MOL      0.117170
    151 H69       -11.5260    1.4370   -1.3180 hc        1 MOL      0.060056
    152 H70       -11.3600    2.8840   -0.3320 hc        1 MOL      0.060056
    153 H71       -10.9330    1.6970    1.6870 hc        1 MOL      0.042369
    154 H72       -10.9150    0.1390    0.8570 hc        1 MOL      0.042369
    155 H73       -13.1030    0.2880    0.2260 hc        1 MOL      0.075293
    156 H74       -13.4450    1.8610    0.5490 hc        1 MOL      0.075293
    157 H75       -12.9730   -0.2160    2.6360 hx        1 MOL      0.103876
    158 H76       -14.4830    0.7640    2.2300 hx        1 MOL      0.103876
    159 H77       -13.5200    2.6150    3.2160 hn        1 MOL      0.326093
    160 H78       -13.1640    1.3780    4.3010 hn        1 MOL      0.326093
    161 H79       -12.0400    1.9330    3.2230 hn        1 MOL      0.326093
    162 N14        -8.6630    3.9110   -0.0350 n         1 MOL     -0.571051
    163 C49        -7.9930    4.8650    0.9310 c3        1 MOL      0.279035
    164 C50        -6.5990    4.4240    1.3850 c         1 MOL      0.317225
    165 O22        -6.4570    4.1540    2.5630 o         1 MOL     -0.525900
    166 C51        -8.0510    6.3380    0.3980 c3        1 MOL     -0.009081
    167 C52        -7.5730    7.4200    1.3320 c3        1 MOL     -0.271915
    168 C53        -7.9960    8.7940    0.8140 c         1 MOL      0.690496
    169 O23        -8.7690    9.5560    1.4490 o         1 MOL     -0.637675
    170 O24        -7.6750    9.1950   -0.3480 o         1 MOL     -0.637675
    171 H80        -9.1000    4.3240   -0.8510 hn        1 MOL      0.282482
    172 H81        -8.6340    4.9070    1.8050 h1        1 MOL      0.018483
    173 H82        -9.0860    6.6050    0.2340 hc        1 MOL      0.022732
    174 H83        -7.5500    6.3780   -0.5810 hc        1 MOL      0.022732
    175 H84        -6.4980    7.2570    1.4320 hc        1 MOL      0.061580
    176 H85        -7.9860    7.1780    2.3070 hc        1 MOL      0.061580
    177 N15        -5.5800    4.2720    0.5720 n         1 MOL     -0.241094
    178 C54        -5.4610    4.5180   -0.8770 c3        1 MOL     -0.053660
    179 H86        -5.4160    3.5650   -1.4040 h1        1 MOL      0.052084
    180 H87        -6.3270    5.0830   -1.2230 h1        1 MOL      0.052084
    181 H88        -4.5530    5.0860   -1.0760 h1        1 MOL      0.052084
    182 H89        -4.7570    3.8630    0.9880 hn        1 MOL      0.280174
    183 Ca1         6.7660    4.7670   -0.1340 Ca        1 MOL      1.515915
    184 O25         7.2560    3.3600   -2.6980 oh        1 MOL     -0.655168
    185 H90         6.7330    2.8280   -3.2920 ho        1 MOL      0.318389
    186 H91         7.9630    3.7210   -3.2440 ho        1 MOL      0.318389
    187 O26         4.0180    5.2500   -1.8100 oh        1 MOL     -0.655168
    188 H92         4.6480    5.9340   -2.0270 ho        1 MOL      0.318389
    189 H93         3.9180    5.3100   -0.8530 ho        1 MOL      0.318389
@<TRIPOS>BOND
     1    1    2 1   
     2    1    4 1   
     3    1    5 1   
     4    1    6 1   
     5    2    3 2   
     6    2    7 1   
     7    7    8 1   
     8    7   15 1   
     9    8    9 1   
    10    8   11 1   
    11    8   16 1   
    12    9   10 2   
    13    9   19 1   
    14   11   12 1   
    15   11   17 1   
    16   11   18 1   
    17   12   13 1   
    18   12   14 1   
    19   19   20 1   
    20   19   28 1   
    21   20   21 1   
    22   20   23 1   
    23   20   29 1   
    24   21   22 2   
    25   21   41 1   
    26   23   24 1   
    27   23   30 1   
    28   23   31 1   
    29   24   25 1   
    30   24   32 1   
    31   24   33 1   
    32   25   26 1   
    33   25   34 1   
    34   25   35 1   
    35   26   27 1   
    36   26   36 1   
    37   26   37 1   
    38   27   38 1   
    39   27   39 1   
    40   27   40 1   
    41   41   42 1   
    42   41   49 1   
    43   42   43 1   
    44   42   45 1   
    45   42   50 1   
    46   43   44 2   
    47   43   53 1   
    48   45   46 1   
    49   45   51 1   
    50   45   52 1   
    51   46   47 1   
    52   46   48 1   
    53   53   54 1   
    54   53   57 1   
    55   54   55 1   
    56   54   58 1   
    57   54   59 1   
    58   55   56 2   
    59   55   60 1   
    60   60   61 1   
    61   60   68 1   
    62   61   62 1   
    63   61   64 1   
    64   61   69 1   
    65   62   63 2   
    66   62   72 1   
    67   64   65 1   
    68   64   70 1   
    69   64   71 1   
    70   65   66 1   
    71   65   67 1   
    72   72   73 1   
    73   72   76 1   
    74   73   74 1   
    75   73   77 1   
    76   73   78 1   
    77   74   75 2   
    78   74   79 1   
    79   79   80 1   
    80   79   86 1   
    81   80   81 1   
    82   80   83 1   
    83   80   87 1   
    84   81   82 2   
    85   81   93 1   
    86   83   84 1   
    87   83   85 1   
    88   83   88 1   
    89   84   90 1   
    90   84   91 1   
    91   84   92 1   
    92   85   89 1   
    93   93   94 1   
    94   93  101 1   
    95   94   95 1   
    96   94   97 1   
    97   94  102 1   
    98   95   96 2   
    99   95  112 1   
   100   97   98 1   
   101   97   99 1   
   102   97  103 1   
   103   98  100 1   
   104   98  104 1   
   105   98  105 1   
   106   99  106 1   
   107   99  107 1   
   108   99  108 1   
   109  100  109 1   
   110  100  110 1   
   111  100  111 1   
   112  112  113 1   
   113  112  119 1   
   114  113  114 1   
   115  113  116 1   
   116  113  120 1   
   117  114  115 2   
   118  114  126 1   
   119  116  117 1   
   120  116  118 1   
   121  116  121 1   
   122  117  123 1   
   123  117  124 1   
   124  117  125 1   
   125  118  122 1   
   126  126  127 1   
   127  126  133 1   
   128  127  128 1   
   129  127  130 1   
   130  127  134 1   
   131  128  129 2   
   132  128  140 1   
   133  130  131 1   
   134  130  132 1   
   135  130  135 1   
   136  131  137 1   
   137  131  138 1   
   138  131  139 1   
   139  132  136 1   
   140  140  141 1   
   141  140  149 1   
   142  141  142 1   
   143  141  144 1   
   144  141  150 1   
   145  142  143 2   
   146  142  162 1   
   147  144  145 1   
   148  144  151 1   
   149  144  152 1   
   150  145  146 1   
   151  145  153 1   
   152  145  154 1   
   153  146  147 1   
   154  146  155 1   
   155  146  156 1   
   156  147  148 1   
   157  147  157 1   
   158  147  158 1   
   159  148  159 1   
   160  148  160 1   
   161  148  161 1   
   162  162  163 1   
   163  162  171 1   
   164  163  164 1   
   165  163  166 1   
   166  163  172 1   
   167  164  165 2   
   168  164  177 1   
   169  166  167 1   
   170  166  173 1   
   171  166  174 1   
   172  167  168 1   
   173  167  175 1   
   174  167  176 1   
   175  168  169 1   
   176  168  170 1   
   177  177  178 1   
   178  177  182 1   
   179  178  179 1   
   180  178  180 1   
   181  178  181 1   
   182  184  185 1   
   183  184  186 1   
   184  187  188 1   
   185  187  189 1   
@<TRIPOS>SUBSTRUCTURE
     1 MOL         1 TEMP              0 ****  ****    0 ROOT
