@<TRIPOS>MOLECULE
MOL
  192   187     1     0     0
SMALL
resp


@<TRIPOS>ATOM
      1 C1         -4.0950    6.5640    2.4720 c3        1 MOL     -0.325324
      2 C2         -4.2860    5.0760    2.0830 c         1 MOL      0.622399
      3 O1         -4.2760    4.1650    2.9620 o         1 MOL     -0.579891
      4 H1         -3.0310    6.7850    2.5480 hc        1 MOL      0.088733
      5 H2         -4.5440    7.1990    1.7080 hc        1 MOL      0.088733
      6 H3         -4.5750    6.7540    3.4310 hc        1 MOL      0.088733
      7 N1         -4.3920    4.7600    0.7980 n         1 MOL     -0.447768
      8 C3         -4.3540    3.3540    0.2970 c3        1 MOL     -0.027597
      9 C4         -2.9920    2.8560   -0.0480 c         1 MOL      0.561004
     10 O2         -2.8890    1.7550   -0.5650 o         1 MOL     -0.570715
     11 C5         -5.3600    3.1820   -0.8660 c3        1 MOL     -0.218634
     12 C6         -5.1770    4.1450   -1.9860 c         1 MOL      0.671508
     13 O3         -4.7490    3.6710   -3.0640 o         1 MOL     -0.719188
     14 O4         -5.5550    5.3820   -1.9030 o         1 MOL     -0.719188
     15 H4         -4.5250    5.4440    0.0760 hn        1 MOL      0.261084
     16 H5         -4.7640    2.6780    1.0590 h1        1 MOL      0.101764
     17 H6         -6.3920    3.3900   -0.5680 hc        1 MOL      0.084432
     18 H7         -5.3480    2.1700   -1.2690 hc        1 MOL      0.084432
     19 N2         -1.9240    3.6080    0.1350 n         1 MOL     -0.363819
     20 C7         -0.5170    3.2850   -0.0240 c3        1 MOL      0.231438
     21 C8          0.2850    3.1800    1.2540 c         1 MOL      0.348874
     22 O5          0.2650    4.0390    2.1590 o         1 MOL     -0.533596
     23 C9         -0.0330    4.2440   -1.0920 c3        1 MOL      0.119771
     24 C10        -0.6940    4.0420   -2.4530 c3        1 MOL     -0.150561
     25 C11         0.1200    4.7480   -3.5490 c3        1 MOL      0.035290
     26 C12        -0.5960    4.8120   -4.9040 c3        1 MOL     -0.059498
     27 N3         -1.5540    5.8940   -4.9840 n4        1 MOL     -0.161419
     28 H8         -2.0600    4.5720    0.4140 hn        1 MOL      0.204767
     29 H9         -0.5240    2.2900   -0.4780 h1        1 MOL      0.039702
     30 H10         1.0500    4.0770   -1.2030 hc        1 MOL     -0.041729
     31 H11        -0.1650    5.2660   -0.7410 hc        1 MOL     -0.041729
     32 H12        -1.6830    4.5080   -2.3400 hc        1 MOL      0.054466
     33 H13        -0.6530    2.9800   -2.6670 hc        1 MOL      0.054466
     34 H14         1.0060    4.1410   -3.7200 hc        1 MOL      0.035055
     35 H15         0.5650    5.7090   -3.2760 hc        1 MOL      0.035055
     36 H16        -1.1230    3.8680   -5.0440 hx        1 MOL      0.093746
     37 H17         0.1070    5.0180   -5.7040 hx        1 MOL      0.093746
     38 H18        -2.4150    5.7410   -4.4760 hn        1 MOL      0.273495
     39 H19        -1.1000    6.7360   -4.6530 hn        1 MOL      0.273495
     40 H20        -1.8960    5.9890   -5.9220 hn        1 MOL      0.273495
     41 N4          1.2930    2.2650    1.3990 n         1 MOL     -0.300928
     42 C13         1.5970    1.0460    0.6060 c3        1 MOL      0.235778
     43 C14         1.9290    1.3770   -0.8700 c         1 MOL      0.293446
     44 O6          1.1700    0.9970   -1.7540 o         1 MOL     -0.499602
     45 C15         0.5660   -0.0540    0.7490 c3        1 MOL     -0.254017
     46 C16         0.0540   -0.3430    2.1520 c         1 MOL      0.860855
     47 O7         -1.1460   -0.6590    2.2890 o         1 MOL     -0.809392
     48 O8          0.8680   -0.2780    3.1030 o         1 MOL     -0.809392
     49 H21         1.7500    2.3800    2.3000 hn        1 MOL      0.250567
     50 H22         2.4890    0.6970    1.1280 h1        1 MOL     -0.051029
     51 H23         0.8900   -0.9530    0.2470 hc        1 MOL      0.088128
     52 H24        -0.3330    0.4140    0.3530 hc        1 MOL      0.088128
     53 N5          2.8810    2.3080   -1.1250 n         1 MOL     -0.200859
     54 C17         3.9670    2.8370   -0.1710 c3        1 MOL      0.022214
     55 C18         4.8330    3.8320   -0.9020 c         1 MOL      0.451540
     56 O9          4.6340    3.9780   -2.1330 o         1 MOL     -0.567690
     57 H25         2.9630    2.6670   -2.0680 hn        1 MOL      0.248045
     58 H26         4.5720    1.9500    0.0270 h1        1 MOL      0.032121
     59 H27         3.5730    3.3080    0.7280 h1        1 MOL      0.032121
     60 N6          5.8900    4.3300   -0.3550 n         1 MOL     -0.334157
     61 C19         6.5410    3.9660    0.8780 c3        1 MOL      0.049237
     62 C20         7.3490    2.7330    0.7430 c         1 MOL      0.573910
     63 O10         7.9000    2.4330   -0.3340 o         1 MOL     -0.468553
     64 C21         7.4360    5.1170    1.5170 c3        1 MOL     -0.312947
     65 C22         8.6050    5.6200    0.6430 c         1 MOL      0.781648
     66 O11         9.4700    6.3430    1.1200 o         1 MOL     -0.678437
     67 O12         8.5430    5.4390   -0.5900 o         1 MOL     -0.678437
     68 H28         6.3740    5.0100   -0.9260 hn        1 MOL      0.284690
     69 H29         5.6560    3.7990    1.5060 h1        1 MOL     -0.003724
     70 H30         7.7780    4.6820    2.4520 hc        1 MOL      0.057783
     71 H31         6.7960    5.9930    1.6070 hc        1 MOL      0.057783
     72 N7          7.3650    1.8930    1.7870 n         1 MOL     -0.373522
     73 C23         8.0860    0.6410    1.8420 c3        1 MOL     -0.069693
     74 C24         7.3030   -0.5750    1.4070 c         1 MOL      0.498848
     75 O13         7.8080   -1.4580    0.6810 o         1 MOL     -0.534335
     76 H32         6.8100    2.0960    2.6050 hn        1 MOL      0.255258
     77 H33         8.3830    0.4420    2.8680 h1        1 MOL      0.083335
     78 H34         9.0030    0.7050    1.2490 h1        1 MOL      0.083335
     79 N8          5.9820   -0.5110    1.6530 n         1 MOL     -0.336739
     80 C25         5.0880   -1.6700    1.3890 c3        1 MOL     -0.040365
     81 C26         4.7310   -1.8040   -0.1430 c         1 MOL      0.804059
     82 O14         4.4140   -0.7710   -0.7280 o         1 MOL     -0.535255
     83 C27         3.8080   -1.7190    2.1730 c3        1 MOL      0.198658
     84 C28         4.0310   -1.9510    3.6820 c3        1 MOL     -0.079006
     85 O15         2.9100   -2.7300    1.7650 oh        1 MOL     -0.598637
     86 H35         5.6440    0.3590    2.0320 hn        1 MOL      0.193942
     87 H36         5.7150   -2.5070    1.6870 h1        1 MOL      0.041110
     88 H37         3.2940   -0.7700    2.0000 h1        1 MOL      0.075371
     89 H38         2.5180   -3.1730    2.5200 ho        1 MOL      0.334120
     90 H39         3.0810   -1.8670    4.2180 hc        1 MOL      0.013192
     91 H40         4.4340   -2.9310    3.9460 hc        1 MOL      0.013192
     92 H41         4.7740   -1.2710    4.0990 hc        1 MOL      0.013192
     93 N9          4.7080   -3.0580   -0.6660 n         1 MOL     -0.615976
     94 C29         4.5440   -3.3280   -2.0990 c3        1 MOL     -0.023700
     95 C30         3.2290   -3.9580   -2.4900 c         1 MOL      0.503608
     96 O16         3.0390   -4.2260   -3.6870 o         1 MOL     -0.562617
     97 C31         5.8080   -4.0070   -2.7470 c3        1 MOL      0.029052
     98 C32         5.8370   -5.5440   -2.4150 c3        1 MOL      0.150420
     99 C33         7.0830   -3.1870   -2.3710 c3        1 MOL     -0.128053
    100 C34         7.0670   -6.2150   -3.0230 c3        1 MOL     -0.055421
    101 H42         5.0100   -3.8380   -0.1040 hn        1 MOL      0.308986
    102 H43         4.4660   -2.3260   -2.5230 h1        1 MOL      0.115504
    103 H44         5.7010   -4.0830   -3.8310 hc        1 MOL      0.040623
    104 H45         5.0990   -6.1500   -2.9390 hc        1 MOL     -0.040599
    105 H46         5.7000   -5.6790   -1.3460 hc        1 MOL     -0.040599
    106 H47         7.8560   -3.4190   -3.1030 hc        1 MOL      0.049163
    107 H48         6.8480   -2.1240   -2.2780 hc        1 MOL      0.049163
    108 H49         7.4070   -3.4810   -1.3720 hc        1 MOL      0.049163
    109 H50         6.9760   -7.3040   -3.0700 hc        1 MOL      0.004692
    110 H51         7.2550   -5.8220   -4.0170 hc        1 MOL      0.004692
    111 H52         7.9110   -5.9590   -2.3820 hc        1 MOL      0.004692
    112 N10         2.3110   -4.1300   -1.5270 n         1 MOL     -0.283989
    113 C35         1.0820   -4.8580   -1.7320 c3        1 MOL     -0.108559
    114 C36        -0.1200   -4.0540   -1.3210 c         1 MOL      0.712016
    115 O17        -0.0600   -3.5370   -0.2010 o         1 MOL     -0.624343
    116 C37         0.9710   -6.2580   -1.0250 c3        1 MOL      0.529880
    117 C38         2.0860   -7.2400   -1.3800 c3        1 MOL     -0.348876
    118 O18        -0.3090   -6.8200   -1.3030 oh        1 MOL     -0.665153
    119 H53         2.5650   -3.8120   -0.6060 hn        1 MOL      0.211736
    120 H54         0.9030   -5.1050   -2.7830 h1        1 MOL      0.097932
    121 H55         0.9330   -6.1090    0.0630 h1        1 MOL     -0.096176
    122 H56        -0.7600   -6.9340   -0.4640 ho        1 MOL      0.399658
    123 H57         1.7420   -8.2280   -1.0590 hc        1 MOL      0.090756
    124 H58         2.2200   -7.2940   -2.4630 hc        1 MOL      0.090756
    125 H59         3.0090   -6.8940   -0.9310 hc        1 MOL      0.090756
    126 N11        -1.1600   -3.9730   -2.1790 n         1 MOL     -0.600526
    127 C39        -2.1650   -2.8730   -2.2060 c3        1 MOL     -0.103445
    128 C40        -3.6540   -3.2860   -2.1430 c         1 MOL      0.759694
    129 O19        -4.1180   -4.1290   -2.8500 o         1 MOL     -0.541469
    130 C41        -1.9310   -1.8670   -3.3580 c3        1 MOL      0.488926
    131 C42        -2.0900   -2.3640   -4.7490 c3        1 MOL     -0.214186
    132 O20        -0.6770   -1.1990   -3.3120 oh        1 MOL     -0.552103
    133 H60        -1.0290   -4.5600   -2.9900 hn        1 MOL      0.321738
    134 H61        -1.9120   -2.3120   -1.3030 h1        1 MOL      0.109464
    135 H62        -2.6800   -1.0860   -3.2540 h1        1 MOL     -0.052753
    136 H63        -0.6910   -0.4120   -2.7740 ho        1 MOL      0.321076
    137 H64        -1.6970   -1.6210   -5.4510 hc        1 MOL      0.047762
    138 H65        -1.5860   -3.3170   -4.9010 hc        1 MOL      0.047762
    139 H66        -3.1330   -2.4530   -5.0190 hc        1 MOL      0.047762
    140 N12        -4.4470   -2.4970   -1.3570 n         1 MOL     -0.590542
    141 C43        -5.9390   -2.5410   -1.3010 c3        1 MOL     -0.172851
    142 C44        -6.5030   -2.2060    0.0660 c         1 MOL      0.756992
    143 O21        -7.6360   -2.5580    0.3860 o         1 MOL     -0.598092
    144 C45        -6.5650   -1.8210   -2.5350 c3        1 MOL     -0.176335
    145 C46        -6.2740   -0.3150   -2.5730 c3        1 MOL     -0.120091
    146 C47        -6.5750    0.5050   -3.8490 c3        1 MOL     -0.045504
    147 C48        -5.6430    0.2130   -4.9660 c3        1 MOL      0.119303
    148 N13        -6.1900    0.7680   -6.2480 n4        1 MOL     -0.368251
    149 H67        -3.9910   -1.7770   -0.8230 hn        1 MOL      0.256276
    150 H68        -6.1420   -3.6090   -1.3990 h1        1 MOL      0.161182
    151 H69        -7.6460   -1.8980   -2.5550 hc        1 MOL      0.086091
    152 H70        -6.0970   -2.2810   -3.3990 hc        1 MOL      0.086091
    153 H71        -5.3520   -0.0160   -2.0690 hc        1 MOL      0.076019
    154 H72        -6.9890    0.0440   -1.8350 hc        1 MOL      0.076019
    155 H73        -6.6420    1.5830   -3.6920 hc        1 MOL      0.052992
    156 H74        -7.5690    0.1570   -4.1530 hc        1 MOL      0.052992
    157 H75        -5.3620   -0.8330   -5.0580 hx        1 MOL      0.051322
    158 H76        -4.7290    0.7700   -4.7510 hx        1 MOL      0.051322
    159 H77        -5.5520    0.8430   -7.0250 hn        1 MOL      0.297689
    160 H78        -6.9500    0.1900   -6.5670 hn        1 MOL      0.297689
    161 H79        -6.5240    1.7110   -6.1250 hn        1 MOL      0.297689
    162 N14        -5.7100   -1.5390    0.8810 n         1 MOL     -0.453595
    163 C49        -6.1220   -1.1560    2.2500 c3        1 MOL     -0.116550
    164 C50        -6.6680    0.2780    2.2960 c         1 MOL      0.388963
    165 O22        -6.0520    1.2570    2.0490 o         1 MOL     -0.380979
    166 C51        -5.0030   -1.3290    3.2830 c3        1 MOL     -0.141178
    167 C52        -4.9420   -2.7310    3.9210 c3        1 MOL      0.122439
    168 C53        -3.5820   -2.9500    4.6100 c         1 MOL      0.523571
    169 O23        -2.5950   -3.1410    3.9030 o         1 MOL     -0.685195
    170 O24        -3.5130   -2.8500    5.8510 o         1 MOL     -0.685195
    171 H80        -4.7490   -1.3240    0.6590 hn        1 MOL      0.373127
    172 H81        -6.9380   -1.7990    2.5920 h1        1 MOL      0.102391
    173 H82        -5.3160   -0.6260    4.0590 hc        1 MOL      0.077286
    174 H83        -4.0670   -1.0730    2.8030 hc        1 MOL      0.077286
    175 H84        -5.1340   -3.4940    3.1650 hc        1 MOL     -0.022426
    176 H85        -5.7910   -2.7370    4.6200 hc        1 MOL     -0.022426
    177 N15        -7.9280    0.3100    2.7480 n         1 MOL     -0.260610
    178 C54        -8.8350    1.4020    2.5300 c3        1 MOL     -0.112996
    179 H86        -9.8180    1.0100    2.2660 h1        1 MOL      0.071781
    180 H87        -8.9130    1.9970    3.4390 h1        1 MOL      0.071781
    181 H88        -8.4640    2.0270    1.7170 h1        1 MOL      0.071781
    182 H89        -8.3660   -0.5540    3.0690 hn        1 MOL      0.253103
    183 Ca1        -0.5780   -1.8960    4.6730 Ca        1 MOL      1.791580
    184 O25        -0.8430   -2.3570    7.4450 oh        1 MOL     -0.952718
    185 H90        -0.1240   -2.6290    8.0220 ho        1 MOL      0.468234
    186 H91        -1.5750   -2.1720    8.0420 ho        1 MOL      0.468234
    187 O26         0.0950   -3.3350    2.5470 oh        1 MOL     -0.952718
    188 H92         0.1330   -2.9870    1.6500 ho        1 MOL      0.468234
    189 H93         0.2070   -4.2780    2.4430 ho        1 MOL      0.468234
    190 O27        -1.5040    0.5220    5.3920 oh        1 MOL     -0.952718
    191 H94        -2.4120    0.7410    5.6090 ho        1 MOL      0.468234
    192 H95        -1.1300    1.3460    5.0870 ho        1 MOL      0.468234
@<TRIPOS>BOND
     1    1    2 1   
     2    1    4 1   
     3    1    5 1   
     4    1    6 1   
     5    2    3 2   
     6    2    7 1   
     7    7    8 1   
     8    7   15 1   
     9    8    9 1   
    10    8   11 1   
    11    8   16 1   
    12    9   10 2   
    13    9   19 1   
    14   11   12 1   
    15   11   17 1   
    16   11   18 1   
    17   12   13 1   
    18   12   14 1   
    19   19   20 1   
    20   19   28 1   
    21   20   21 1   
    22   20   23 1   
    23   20   29 1   
    24   21   22 2   
    25   21   41 1   
    26   23   24 1   
    27   23   30 1   
    28   23   31 1   
    29   24   25 1   
    30   24   32 1   
    31   24   33 1   
    32   25   26 1   
    33   25   34 1   
    34   25   35 1   
    35   26   27 1   
    36   26   36 1   
    37   26   37 1   
    38   27   38 1   
    39   27   39 1   
    40   27   40 1   
    41   41   42 1   
    42   41   49 1   
    43   42   43 1   
    44   42   45 1   
    45   42   50 1   
    46   43   44 2   
    47   43   53 1   
    48   45   46 1   
    49   45   51 1   
    50   45   52 1   
    51   46   47 1   
    52   46   48 1   
    53   53   54 1   
    54   53   57 1   
    55   54   55 1   
    56   54   58 1   
    57   54   59 1   
    58   55   56 2   
    59   55   60 1   
    60   60   61 1   
    61   60   68 1   
    62   61   62 1   
    63   61   64 1   
    64   61   69 1   
    65   62   63 2   
    66   62   72 1   
    67   64   65 1   
    68   64   70 1   
    69   64   71 1   
    70   65   66 1   
    71   65   67 1   
    72   72   73 1   
    73   72   76 1   
    74   73   74 1   
    75   73   77 1   
    76   73   78 1   
    77   74   75 2   
    78   74   79 1   
    79   79   80 1   
    80   79   86 1   
    81   80   81 1   
    82   80   83 1   
    83   80   87 1   
    84   81   82 2   
    85   81   93 1   
    86   83   84 1   
    87   83   85 1   
    88   83   88 1   
    89   84   90 1   
    90   84   91 1   
    91   84   92 1   
    92   85   89 1   
    93   93   94 1   
    94   93  101 1   
    95   94   95 1   
    96   94   97 1   
    97   94  102 1   
    98   95   96 2   
    99   95  112 1   
   100   97   98 1   
   101   97   99 1   
   102   97  103 1   
   103   98  100 1   
   104   98  104 1   
   105   98  105 1   
   106   99  106 1   
   107   99  107 1   
   108   99  108 1   
   109  100  109 1   
   110  100  110 1   
   111  100  111 1   
   112  112  113 1   
   113  112  119 1   
   114  113  114 1   
   115  113  116 1   
   116  113  120 1   
   117  114  115 2   
   118  114  126 1   
   119  116  117 1   
   120  116  118 1   
   121  116  121 1   
   122  117  123 1   
   123  117  124 1   
   124  117  125 1   
   125  118  122 1   
   126  126  127 1   
   127  126  133 1   
   128  127  128 1   
   129  127  130 1   
   130  127  134 1   
   131  128  129 2   
   132  128  140 1   
   133  130  131 1   
   134  130  132 1   
   135  130  135 1   
   136  131  137 1   
   137  131  138 1   
   138  131  139 1   
   139  132  136 1   
   140  140  141 1   
   141  140  149 1   
   142  141  142 1   
   143  141  144 1   
   144  141  150 1   
   145  142  143 2   
   146  142  162 1   
   147  144  145 1   
   148  144  151 1   
   149  144  152 1   
   150  145  146 1   
   151  145  153 1   
   152  145  154 1   
   153  146  147 1   
   154  146  155 1   
   155  146  156 1   
   156  147  148 1   
   157  147  157 1   
   158  147  158 1   
   159  148  159 1   
   160  148  160 1   
   161  148  161 1   
   162  162  163 1   
   163  162  171 1   
   164  163  164 1   
   165  163  166 1   
   166  163  172 1   
   167  164  165 2   
   168  164  177 1   
   169  166  167 1   
   170  166  173 1   
   171  166  174 1   
   172  167  168 1   
   173  167  175 1   
   174  167  176 1   
   175  168  169 1   
   176  168  170 1   
   177  177  178 1   
   178  177  182 1   
   179  178  179 1   
   180  178  180 1   
   181  178  181 1   
   182  184  185 1   
   183  184  186 1   
   184  187  188 1   
   185  187  189 1   
   186  190  191 1   
   187  190  192 1   
@<TRIPOS>SUBSTRUCTURE
     1 MOL         1 TEMP              0 ****  ****    0 ROOT
