@<TRIPOS>MOLECULE
MOL
  178   175     1     0     0
SMALL
resp


@<TRIPOS>ATOM
      1 C1          2.4290   -3.1240    4.0840 c3        1 MOL     -0.291937
      2 C2          3.4990   -2.1650    3.4900 c         1 MOL      0.543388
      3 O1          3.4660   -1.9190    2.3210 o         1 MOL     -0.484803
      4 H1          1.8730   -3.5960    3.2740 hc        1 MOL      0.075090
      5 H2          2.9200   -3.8930    4.6810 hc        1 MOL      0.075090
      6 H3          1.7430   -2.5580    4.7140 hc        1 MOL      0.075090
      7 N1          4.4350   -1.6740    4.3320 n         1 MOL     -0.378025
      8 C3          5.5070   -0.7950    4.0320 c3        1 MOL      0.074858
      9 C4          6.3580   -1.3540    2.8460 c         1 MOL      0.439978
     10 O2          6.8420   -0.5690    2.0150 o         1 MOL     -0.458196
     11 C5          6.4800   -0.6620    5.2500 c3        1 MOL     -0.063341
     12 C6          7.4720    0.4760    4.8840 c         1 MOL      0.729996
     13 O3          7.0640    1.6750    4.8150 o         1 MOL     -0.726052
     14 O4          8.6390    0.1620    4.7890 o         1 MOL     -0.726052
     15 H4          4.4500   -1.9990    5.2900 hn        1 MOL      0.222315
     16 H5          5.0810    0.1760    3.8050 h1        1 MOL      0.023733
     17 H6          7.0790   -1.5390    5.4860 hc        1 MOL     -0.033342
     18 H7          5.9580   -0.3020    6.1320 hc        1 MOL     -0.033342
     19 N2          6.4540   -2.7300    2.6860 n         1 MOL     -0.396864
     20 C7          7.0810   -3.4910    1.6410 c3        1 MOL      0.331157
     21 C8          6.5490   -3.0330    0.2230 c         1 MOL      0.257339
     22 O5          7.2980   -2.8280   -0.7740 o         1 MOL     -0.507107
     23 C9          8.5990   -3.3200    1.8700 c3        1 MOL     -0.491031
     24 H8          6.1110   -3.2780    3.4710 hn        1 MOL      0.214181
     25 H9          6.8890   -4.5500    1.8110 h1        1 MOL      0.025605
     26 H10         8.8820   -3.7590    2.8270 hc        1 MOL      0.129034
     27 H11         9.1120   -3.7590    1.0110 hc        1 MOL      0.129034
     28 H12         8.9650   -2.3130    1.6940 hc        1 MOL      0.129034
     29 N3          5.2590   -2.8480    0.0110 n         1 MOL     -0.320433
     30 C10         4.5990   -2.4080   -1.2790 c3        1 MOL      0.294323
     31 C11         5.1170   -1.1540   -1.9730 c         1 MOL      0.352319
     32 O6          5.0960   -0.9710   -3.2300 o         1 MOL     -0.536928
     33 C12         4.4830   -3.6030   -2.2450 c3        1 MOL     -0.264544
     34 C13         3.4570   -4.6930   -1.7760 c         1 MOL      0.663701
     35 O7          3.8600   -5.7090   -1.1630 o         1 MOL     -0.665000
     36 O8          2.1920   -4.5480   -1.9440 o         1 MOL     -0.665000
     37 H13         4.6810   -3.0770    0.8090 hn        1 MOL      0.248528
     38 H14         3.5630   -2.1730   -1.0330 h1        1 MOL      0.045801
     39 H15         5.4650   -4.0370   -2.4140 hc        1 MOL      0.025643
     40 H16         4.1630   -3.2100   -3.2020 hc        1 MOL      0.025643
     41 N4          5.6820   -0.2020   -1.2370 n         1 MOL     -0.017234
     42 C14         6.0490    1.1880   -1.6020 c3        1 MOL     -0.282366
     43 C15         4.9180    2.0070   -2.3120 c         1 MOL      0.631940
     44 O9          5.2610    3.0630   -2.8790 o         1 MOL     -0.575920
     45 H17         5.5380   -0.4140   -0.2590 hn        1 MOL      0.110727
     46 H18         6.9670    1.1520   -2.1890 h1        1 MOL      0.135996
     47 H19         6.1700    1.6640   -0.6380 h1        1 MOL      0.135996
     48 N5          3.6370    1.6540   -2.3010 n         1 MOL     -0.363139
     49 C16         2.5420    2.2600   -3.0770 c3        1 MOL      0.023817
     50 C17         2.2470    3.6890   -2.6060 c         1 MOL      0.412534
     51 O10         2.4610    4.0450   -1.4320 o         1 MOL     -0.437742
     52 C18         1.2690    1.4260   -2.9140 c3        1 MOL     -0.660148
     53 C19         1.4730    0.1570   -3.6820 c         1 MOL      0.922459
     54 N6          1.2360    0.1330   -4.9820 n         1 MOL     -0.876550
     55 O11         1.7020   -0.8700   -3.0830 o         1 MOL     -0.628084
     56 H20         3.4390    0.7710   -1.8410 hn        1 MOL      0.211987
     57 H21         2.7860    2.2310   -4.1370 h1        1 MOL      0.049472
     58 H22         0.3190    1.9140   -3.1640 hc        1 MOL      0.234624
     59 H23         1.2590    1.1600   -1.8580 hc        1 MOL      0.234624
     60 H24         0.8940    0.9840   -5.3960 hn        1 MOL      0.380846
     61 H25         1.4840   -0.6920   -5.5140 hn        1 MOL      0.380846
     62 N7          1.9560    4.6100   -3.5210 n         1 MOL     -0.227572
     63 C20         2.1740    6.0520   -3.2920 c3        1 MOL     -0.341635
     64 C21         0.9340    6.6370   -2.5370 c         1 MOL      0.516561
     65 O12        -0.2070    6.6440   -3.1180 o         1 MOL     -0.528729
     66 H26         1.8070    4.3530   -4.4830 hn        1 MOL      0.254339
     67 H27         2.2170    6.5780   -4.2430 h1        1 MOL      0.156077
     68 H28         3.1310    6.1190   -2.7680 h1        1 MOL      0.156077
     69 N8          1.1760    7.1360   -1.3550 n         1 MOL     -0.442733
     70 C22         0.1550    7.5250   -0.3590 c3        1 MOL     -0.024818
     71 C23        -0.5600    6.4120    0.3300 c         1 MOL      0.460069
     72 O13        -1.6650    6.6250    0.7380 o         1 MOL     -0.565144
     73 C24         0.8360    8.4430    0.6810 c3        1 MOL      0.358020
     74 C25        -0.1900    9.3970    1.4120 c3        1 MOL     -0.426016
     75 O14         1.6000    7.6220    1.5920 oh        1 MOL     -0.645125
     76 H29         2.1360    7.2690   -1.0570 hn        1 MOL      0.302474
     77 H30        -0.5550    8.1630   -0.8960 h1        1 MOL      0.118216
     78 H31         1.5310    9.0340    0.0800 h1        1 MOL     -0.011088
     79 H32         2.0560    8.1610    2.2360 ho        1 MOL      0.415375
     80 H33        -0.6500   10.0260    0.6580 hc        1 MOL      0.111971
     81 H34        -0.9130    8.8890    2.0520 hc        1 MOL      0.111971
     82 H35         0.4110    9.9920    2.0980 hc        1 MOL      0.111971
     83 N9         -0.0810    5.1650    0.3890 n         1 MOL     -0.029124
     84 C26        -0.6490    3.9880    1.0640 c3        1 MOL     -0.067244
     85 C27        -1.1070    2.8890    0.0720 c         1 MOL      0.382427
     86 O15        -0.6320    2.8930   -1.0680 o         1 MOL     -0.462365
     87 C28         0.1830    3.3780    2.2380 c3        1 MOL      0.230884
     88 C29         1.4200    2.6390    1.6830 c3        1 MOL     -0.115965
     89 C30         0.6480    4.5090    3.1360 c3        1 MOL     -0.441456
     90 C31         2.2780    2.1100    2.7800 c3        1 MOL     -0.185471
     91 H36         0.7160    4.9940   -0.2070 hn        1 MOL      0.116810
     92 H37        -1.5650    4.4020    1.4990 h1        1 MOL      0.040226
     93 H38        -0.4070    2.6150    2.7530 hc        1 MOL     -0.046729
     94 H39         1.9860    3.4430    1.2210 hc        1 MOL      0.110939
     95 H40         1.0790    1.9020    0.9560 hc        1 MOL      0.110939
     96 H41         1.2360    5.2300    2.5810 hc        1 MOL      0.104583
     97 H42        -0.2380    4.9380    3.5960 hc        1 MOL      0.104583
     98 H43         1.2720    4.2550    3.9980 hc        1 MOL      0.104583
     99 H44         3.1050    2.7350    3.1100 hc        1 MOL      0.057269
    100 H45         1.7650    1.9280    3.7280 hc        1 MOL      0.057269
    101 H46         2.6000    1.1200    2.4730 hc        1 MOL      0.057269
    102 N10        -1.9010    1.9450    0.5130 n         1 MOL     -0.372185
    103 C32        -2.1220    0.6650   -0.1420 c3        1 MOL     -0.001774
    104 C33        -3.5640    0.2250   -0.1200 c         1 MOL      0.646221
    105 O16        -3.9390   -0.7380   -0.7280 o         1 MOL     -0.535923
    106 C34        -1.1500   -0.3470    0.4110 c3        1 MOL     -0.111849
    107 C35        -0.6270   -1.2980   -0.6550 c         1 MOL      0.586584
    108 O17         0.2280   -2.1170   -0.3400 o         1 MOL     -0.722880
    109 O18        -1.0000   -1.3530   -1.8520 o         1 MOL     -0.722880
    110 H47        -2.4130    2.1530    1.3610 hn        1 MOL      0.245619
    111 H48        -1.8190    0.7760   -1.1840 h1        1 MOL      0.085179
    112 H49        -1.6610   -0.9250    1.1920 hc        1 MOL      0.058966
    113 H50        -0.3340    0.1040    0.9890 hc        1 MOL      0.058966
    114 N11        -4.5350    1.0160    0.4940 n         1 MOL     -0.680862
    115 C36        -6.0100    0.7290    0.3180 c3        1 MOL      0.371198
    116 C37        -6.4420   -0.5170    1.1530 c         1 MOL      0.262737
    117 O19        -6.0960   -0.6730    2.3310 o         1 MOL     -0.472763
    118 C38        -6.8780    1.9400    0.7030 c3        1 MOL     -0.299657
    119 C39        -8.3780    1.8380    0.5650 ca        1 MOL      0.106891
    120 C40        -9.0070    2.3570   -0.5840 ca        1 MOL     -0.146902
    121 C41        -9.0630    1.2570    1.6840 ca        1 MOL     -0.146902
    122 C42       -10.4080    2.1190   -0.6360 ca        1 MOL     -0.098056
    123 C43       -10.4720    1.1430    1.5980 ca        1 MOL     -0.098056
    124 C44       -11.1450    1.5790    0.4150 ca        1 MOL     -0.173510
    125 H51        -4.2440    1.7690    1.1160 hn        1 MOL      0.313951
    126 H52        -6.2940    0.5550   -0.7210 h1        1 MOL      0.042815
    127 H53        -6.5500    2.8050    0.1210 hc        1 MOL      0.096886
    128 H54        -6.6830    2.0950    1.7570 hc        1 MOL      0.096886
    129 H55        -8.5280    2.8800   -1.4000 ha        1 MOL      0.130915
    130 H56        -8.4350    0.9540    2.5000 ha        1 MOL      0.130915
    131 H57       -10.8150    2.4620   -1.5790 ha        1 MOL      0.105479
    132 H58       -10.9900    0.6080    2.3780 ha        1 MOL      0.105479
    133 H59       -12.2130    1.4480    0.2910 ha        1 MOL      0.121856
    134 N12        -7.0790   -1.5240    0.5610 n         1 MOL     -0.004210
    135 C45        -7.4150   -2.8290    1.2240 c3        1 MOL     -0.105771
    136 C46        -6.1980   -3.6060    1.6660 c         1 MOL      0.434704
    137 O20        -6.3120   -4.3600    2.6130 o         1 MOL     -0.526498
    138 C47        -8.4170   -3.4820    0.2470 c3        1 MOL      0.046802
    139 C48        -8.9810   -2.2630   -0.5500 c3        1 MOL     -0.051758
    140 C49        -7.7370   -1.4040   -0.7280 c3        1 MOL     -0.078391
    141 H60        -7.9940   -2.5460    2.1050 h1        1 MOL      0.109980
    142 H61        -8.0410   -4.2860   -0.3830 hc        1 MOL      0.012900
    143 H62        -9.2290   -3.9230    0.8320 hc        1 MOL      0.012900
    144 H63        -9.5850   -2.5460   -1.4230 hc        1 MOL      0.035641
    145 H64        -9.6810   -1.7270    0.0960 hc        1 MOL      0.035641
    146 H65        -7.0930   -1.6510   -1.5790 h1        1 MOL      0.038986
    147 H66        -8.0010   -0.3760   -0.9660 h1        1 MOL      0.038986
    148 N13        -4.9530   -3.3490    1.1550 n         1 MOL     -0.119838
    149 C50        -3.7720   -3.9910    1.7260 c3        1 MOL     -0.254047
    150 C51        -3.2810   -3.2570    2.9490 c         1 MOL      0.463819
    151 O21        -2.4760   -3.8050    3.7300 o         1 MOL     -0.555168
    152 C52        -2.6980   -3.8830    0.6450 c3        1 MOL      0.028635
    153 C53        -2.7770   -5.0180   -0.3360 c3        1 MOL     -0.246557
    154 C54        -1.8320   -4.9440   -1.4680 c         1 MOL      0.789756
    155 O22        -0.7350   -5.4950   -1.4930 o         1 MOL     -0.793829
    156 O23        -2.1710   -4.1850   -2.4360 o         1 MOL     -0.793829
    157 H67        -4.8790   -2.6630    0.4070 hn        1 MOL      0.165382
    158 H68        -3.9740   -5.0230    1.9910 h1        1 MOL      0.148138
    159 H69        -1.7390   -3.9930    1.1540 hc        1 MOL      0.136668
    160 H70        -2.6760   -2.9230    0.1320 hc        1 MOL      0.136668
    161 H71        -3.7820   -5.1040   -0.7650 hc        1 MOL      0.035381
    162 H72        -2.5970   -5.9210    0.2460 hc        1 MOL      0.035381
    163 N14        -3.8810   -2.0440    3.2500 n         1 MOL     -0.018859
    164 C55        -3.6150   -1.2230    4.4190 c3        1 MOL     -0.239350
    165 H73        -2.7940   -0.5390    4.2020 h1        1 MOL      0.083085
    166 H74        -4.5080   -0.6510    4.6720 h1        1 MOL      0.083085
    167 H75        -3.3430   -1.8620    5.2580 h1        1 MOL      0.083085
    168 H76        -4.6930   -1.9190    2.6630 hn        1 MOL      0.067210
    169 Ca1         0.1560   -3.2440   -2.9640 Ca        1 MOL      1.767835
    170 O24         2.1540   -2.9340   -4.8210 oh        1 MOL     -0.840114
    171 H77         2.7920   -2.2680   -5.0870 ho        1 MOL      0.405197
    172 H78         2.4920   -3.7540   -5.1890 ho        1 MOL      0.405197
    173 O25        -0.1010   -5.2270   -4.7730 oh        1 MOL     -0.840114
    174 H79        -0.9630   -5.6260   -4.6270 ho        1 MOL      0.405197
    175 H80         0.2880   -5.7550   -5.4610 ho        1 MOL      0.405197
    176 O26        -0.7680   -2.2020   -5.5400 oh        1 MOL     -0.840114
    177 H81        -1.6620   -2.5200   -5.6310 ho        1 MOL      0.405197
    178 H82        -0.4640   -2.0940   -6.4480 ho        1 MOL      0.405197
@<TRIPOS>BOND
     1    1    2 1   
     2    1    4 1   
     3    1    5 1   
     4    1    6 1   
     5    2    3 2   
     6    2    7 1   
     7    7    8 1   
     8    7   15 1   
     9    8    9 1   
    10    8   11 1   
    11    8   16 1   
    12    9   10 2   
    13    9   19 1   
    14   11   12 1   
    15   11   17 1   
    16   11   18 1   
    17   12   13 1   
    18   12   14 1   
    19   19   20 1   
    20   19   24 1   
    21   20   21 1   
    22   20   23 1   
    23   20   25 1   
    24   21   22 2   
    25   21   29 1   
    26   23   26 1   
    27   23   27 1   
    28   23   28 1   
    29   29   30 1   
    30   29   37 1   
    31   30   31 1   
    32   30   33 1   
    33   30   38 1   
    34   31   32 2   
    35   31   41 1   
    36   33   34 1   
    37   33   39 1   
    38   33   40 1   
    39   34   35 1   
    40   34   36 1   
    41   41   42 1   
    42   41   45 1   
    43   42   43 1   
    44   42   46 1   
    45   42   47 1   
    46   43   44 2   
    47   43   48 1   
    48   48   49 1   
    49   48   56 1   
    50   49   50 1   
    51   49   52 1   
    52   49   57 1   
    53   50   51 2   
    54   50   62 1   
    55   52   53 1   
    56   52   58 1   
    57   52   59 1   
    58   53   54 1   
    59   53   55 2   
    60   54   60 1   
    61   54   61 1   
    62   62   63 1   
    63   62   66 1   
    64   63   64 1   
    65   63   67 1   
    66   63   68 1   
    67   64   65 2   
    68   64   69 1   
    69   69   70 1   
    70   69   76 1   
    71   70   71 1   
    72   70   73 1   
    73   70   77 1   
    74   71   72 2   
    75   71   83 1   
    76   73   74 1   
    77   73   75 1   
    78   73   78 1   
    79   74   80 1   
    80   74   81 1   
    81   74   82 1   
    82   75   79 1   
    83   83   84 1   
    84   83   91 1   
    85   84   85 1   
    86   84   87 1   
    87   84   92 1   
    88   85   86 2   
    89   85  102 1   
    90   87   88 1   
    91   87   89 1   
    92   87   93 1   
    93   88   90 1   
    94   88   94 1   
    95   88   95 1   
    96   89   96 1   
    97   89   97 1   
    98   89   98 1   
    99   90   99 1   
   100   90  100 1   
   101   90  101 1   
   102  102  103 1   
   103  102  110 1   
   104  103  104 1   
   105  103  106 1   
   106  103  111 1   
   107  104  105 2   
   108  104  114 1   
   109  106  107 1   
   110  106  112 1   
   111  106  113 1   
   112  107  108 1   
   113  107  109 1   
   114  114  115 1   
   115  114  125 1   
   116  115  116 1   
   117  115  118 1   
   118  115  126 1   
   119  116  117 2   
   120  116  134 1   
   121  118  119 1   
   122  118  127 1   
   123  118  128 1   
   124  119  120 ar  
   125  119  121 ar  
   126  120  122 ar  
   127  120  129 1   
   128  121  123 ar  
   129  121  130 1   
   130  122  124 ar  
   131  122  131 1   
   132  123  124 ar  
   133  123  132 1   
   134  124  133 1   
   135  134  135 1   
   136  134  140 1   
   137  135  136 1   
   138  135  138 1   
   139  135  141 1   
   140  136  137 2   
   141  136  148 1   
   142  138  139 1   
   143  138  142 1   
   144  138  143 1   
   145  139  140 1   
   146  139  144 1   
   147  139  145 1   
   148  140  146 1   
   149  140  147 1   
   150  148  149 1   
   151  148  157 1   
   152  149  150 1   
   153  149  152 1   
   154  149  158 1   
   155  150  151 2   
   156  150  163 1   
   157  152  153 1   
   158  152  159 1   
   159  152  160 1   
   160  153  154 1   
   161  153  161 1   
   162  153  162 1   
   163  154  155 1   
   164  154  156 1   
   165  163  164 1   
   166  163  168 1   
   167  164  165 1   
   168  164  166 1   
   169  164  167 1   
   170  170  171 1   
   171  170  172 1   
   172  173  174 1   
   173  173  175 1   
   174  176  177 1   
   175  176  178 1   
@<TRIPOS>SUBSTRUCTURE
     1 MOL         1 TEMP              0 ****  ****    0 ROOT
