@<TRIPOS>MOLECULE
MOL
  189   185     1     0     0
SMALL
resp


@<TRIPOS>ATOM
      1 C1         -5.0330   -4.6180   -4.2740 c3        1 MOL     -0.427242
      2 C2         -5.2630   -3.8580   -2.9870 c         1 MOL      0.857314
      3 O1         -4.3120   -3.4320   -2.3260 o         1 MOL     -0.609564
      4 H1         -5.4870   -4.0740   -5.1020 hc        1 MOL      0.092217
      5 H2         -3.9620   -4.7190   -4.4500 hc        1 MOL      0.092217
      6 H3         -5.4840   -5.6070   -4.1980 hc        1 MOL      0.092217
      7 N1         -6.4890   -3.5840   -2.6230 n         1 MOL     -0.719268
      8 C3         -6.9400   -2.7460   -1.5560 c3        1 MOL      0.179962
      9 C4         -6.1340   -1.3930   -1.4430 c         1 MOL      0.552585
     10 O2         -5.7570   -1.0580   -0.3670 o         1 MOL     -0.511219
     11 C5         -7.3830   -3.5020   -0.2350 c3        1 MOL     -0.179489
     12 C6         -6.2760   -4.4350    0.1680 c         1 MOL      0.810133
     13 O3         -5.2260   -3.9770    0.6870 o         1 MOL     -0.754954
     14 O4         -6.4710   -5.6700    0.1730 o         1 MOL     -0.754954
     15 H4         -7.2260   -4.0840   -3.1130 hn        1 MOL      0.328130
     16 H5         -7.8480   -2.3130   -1.9790 h1        1 MOL      0.031639
     17 H6         -8.2500   -4.1320   -0.4270 hc        1 MOL      0.033149
     18 H7         -7.5630   -2.7390    0.5230 hc        1 MOL      0.033149
     19 N2         -5.8120   -0.7360   -2.6160 n         1 MOL     -0.684113
     20 C7         -5.0300    0.5820   -2.7710 c3        1 MOL      0.263649
     21 C8         -5.6470    1.8370   -2.1570 c         1 MOL      0.244636
     22 O5         -5.8990    2.8650   -2.7830 o         1 MOL     -0.534460
     23 C9         -3.5430    0.4350   -2.4510 c3        1 MOL      0.337712
     24 C10        -2.8090    1.7260   -2.4700 c3        1 MOL     -0.450576
     25 C11        -2.8280   -0.6000   -3.2000 c3        1 MOL     -0.278411
     26 C12        -2.8280    2.4500   -3.8410 c3        1 MOL     -0.301854
     27 H8         -6.1220   -1.1820   -3.4640 hn        1 MOL      0.320817
     28 H9         -5.0360    0.7820   -3.8420 h1        1 MOL     -0.001077
     29 H10        -3.5760    0.1230   -1.4040 hc        1 MOL     -0.033125
     30 H11        -1.7540    1.7280   -2.1910 hc        1 MOL      0.193429
     31 H12        -3.2930    2.4790   -1.8450 hc        1 MOL      0.193429
     32 H13        -2.8470   -1.5850   -2.7410 hc        1 MOL      0.054523
     33 H14        -3.1900   -0.7170   -4.2230 hc        1 MOL      0.054523
     34 H15        -1.7680   -0.3590   -3.1330 hc        1 MOL      0.054523
     35 H16        -2.3720    3.4360   -3.7140 hc        1 MOL      0.072777
     36 H17        -2.3300    1.9320   -4.6550 hc        1 MOL      0.072777
     37 H18        -3.8590    2.6530   -4.1090 hc        1 MOL      0.072777
     38 N3         -6.0020    1.8110   -0.8650 n         1 MOL      0.043001
     39 C13        -6.9220    2.7720   -0.1830 c3        1 MOL      0.091589
     40 C14        -6.3810    4.2880   -0.1100 c         1 MOL      0.493093
     41 O6         -7.1710    5.2420   -0.3570 o         1 MOL     -0.585032
     42 C15        -7.3900    2.2420    1.2020 c3        1 MOL     -0.293659
     43 C16        -8.3070    1.0460    0.9630 c         1 MOL      0.664307
     44 O7         -9.2990    1.1140    0.2060 o         1 MOL     -0.687480
     45 O8         -7.9410   -0.0370    1.4850 o         1 MOL     -0.687480
     46 H19        -5.8400    0.9310   -0.4090 hn        1 MOL      0.184060
     47 H20        -7.8650    2.8290   -0.7190 h1        1 MOL      0.023072
     48 H21        -7.7690    2.9500    1.9340 hc        1 MOL      0.092790
     49 H22        -6.5150    1.8670    1.7320 hc        1 MOL      0.092790
     50 N4         -5.1370    4.5700    0.2330 n         1 MOL     -0.469779
     51 C17        -4.1440    3.7180    0.8770 c3        1 MOL      0.096172
     52 C18        -4.3200    3.5020    2.3490 c         1 MOL      0.351793
     53 O9         -5.3550    3.7570    3.0120 o         1 MOL     -0.512443
     54 H23        -4.8170    5.5090    0.0140 hn        1 MOL      0.283460
     55 H24        -3.2550    4.3390    0.8150 h1        1 MOL      0.057741
     56 H25        -4.0610    2.7730    0.3330 h1        1 MOL      0.057741
     57 N5         -3.3930    2.7040    2.9460 n         1 MOL     -0.248809
     58 C19        -2.1480    2.0650    2.5470 c3        1 MOL     -0.157561
     59 C20        -2.3100    1.1270    1.3110 c         1 MOL      0.116209
     60 O10        -3.3390    0.5510    1.0760 o         1 MOL     -0.463136
     61 C21        -1.5670    1.3280    3.7900 c3        1 MOL     -0.285587
     62 C22        -2.5820    0.3250    4.2130 c         1 MOL      0.872964
     63 O11        -2.5860   -0.8120    3.6720 o         1 MOL     -0.724055
     64 O12        -3.3350    0.6280    5.1730 o         1 MOL     -0.724055
     65 H26        -3.5730    2.4590    3.9090 hn        1 MOL      0.233599
     66 H27        -1.5180    2.9160    2.2990 h1        1 MOL      0.117329
     67 H28        -1.4110    2.0740    4.5710 hc        1 MOL      0.076244
     68 H29        -0.6420    0.8410    3.4660 hc        1 MOL      0.076244
     69 N6         -1.2510    0.8560    0.4930 n         1 MOL      0.079478
     70 C23         0.1650    1.2910    0.4950 c3        1 MOL     -0.130398
     71 C24         0.3800    2.7770    0.2540 c         1 MOL      0.425524
     72 O13        -0.4480    3.4580   -0.3220 o         1 MOL     -0.509711
     73 H30        -1.4410    0.1250   -0.1790 hn        1 MOL      0.032022
     74 H31         0.7320    0.6610   -0.1790 h1        1 MOL      0.055279
     75 H32         0.5180    1.0630    1.4990 h1        1 MOL      0.055279
     76 N7          1.5960    3.1960    0.6080 n         1 MOL     -0.310993
     77 C25         2.1340    4.5260    0.3260 c3        1 MOL     -0.022034
     78 C26         2.5230    4.6320   -1.1770 c         1 MOL      0.327590
     79 O14         2.5180    5.7280   -1.6880 o         1 MOL     -0.486360
     80 C27         3.2490    5.0630    1.2710 c3        1 MOL     -0.192153
     81 C28         2.8000    5.0180    2.7230 c3        1 MOL     -0.094580
     82 C29         1.5620    5.7720    3.2250 c         1 MOL      0.686900
     83 N8          0.8670    5.1510    4.1350 n         1 MOL     -0.818935
     84 O15         1.2730    6.8670    2.8010 o         1 MOL     -0.556495
     85 H33         2.1820    2.5260    1.0760 hn        1 MOL      0.278588
     86 H34         1.3440    5.2600    0.4210 h1        1 MOL      0.150202
     87 H35         3.3750    6.1180    1.0530 hc        1 MOL      0.097295
     88 H36         4.1110    4.3860    1.1810 hc        1 MOL      0.097295
     89 H37         3.6350    5.3570    3.3400 hc        1 MOL      0.015930
     90 H38         2.6270    3.9720    2.9640 hc        1 MOL      0.015930
     91 H39         1.1370    4.2160    4.3950 hn        1 MOL      0.381533
     92 H40        -0.0900    5.4120    4.3480 hn        1 MOL      0.381533
     93 N9          2.7650    3.4700   -1.8330 n         1 MOL     -0.057044
     94 C30         3.2130    3.4290   -3.2800 c3        1 MOL     -0.283820
     95 C31         4.6930    3.0610   -3.5320 c         1 MOL      0.556935
     96 O16         5.1690    3.2360   -4.6360 o         1 MOL     -0.541586
     97 C32         2.2610    2.4450   -4.0730 c3        1 MOL      0.347398
     98 C33         0.7130    2.7210   -3.9500 c3        1 MOL     -0.188855
     99 C34         2.5770    1.0120   -3.6650 c3        1 MOL     -0.188855
    100 H41         2.7700    2.5670   -1.3800 hn        1 MOL      0.150485
    101 H42         3.0170    4.4280   -3.6640 h1        1 MOL      0.125167
    102 H43         2.4960    2.6190   -5.1240 hc        1 MOL     -0.036765
    103 H44         0.5110    3.7750   -4.1710 hc        1 MOL      0.036322
    104 H45         0.2960    2.1890   -4.7960 hc        1 MOL      0.036322
    105 H46         0.3060    2.3890   -3.0020 hc        1 MOL      0.036322
    106 H47         1.9800    0.2810   -4.1970 hc        1 MOL      0.036322
    107 H48         3.5950    0.8160   -3.9780 hc        1 MOL      0.036322
    108 H49         2.4820    0.8280   -2.5950 hc        1 MOL      0.036322
    109 N10         5.4280    2.5980   -2.5420 n         1 MOL     -0.295117
    110 C35         6.8720    2.3070   -2.6320 c3        1 MOL     -0.092510
    111 C36         7.3280    1.0280   -1.8570 c         1 MOL      0.699328
    112 O17         8.4330    0.6860   -1.7020 o         1 MOL     -0.585173
    113 C37         7.7530    3.5850   -2.1020 c3        1 MOL     -0.237928
    114 C38         7.3340    4.1080   -0.7770 c         1 MOL      0.701358
    115 N11         7.1460    5.3820   -0.7510 n         1 MOL     -0.819736
    116 O18         7.3320    3.4430    0.2400 o         1 MOL     -0.556568
    117 H50         5.0500    2.5870   -1.6020 hn        1 MOL      0.169363
    118 H51         7.0100    2.1330   -3.6930 h1        1 MOL      0.127087
    119 H52         7.8350    4.3330   -2.8860 hc        1 MOL      0.090229
    120 H53         8.8110    3.3250   -2.0340 hc        1 MOL      0.090229
    121 H54         7.3770    5.9670   -1.5430 hn        1 MOL      0.368888
    122 H55         6.9600    5.8860    0.1060 hn        1 MOL      0.368888
    123 N12         6.3660    0.3120   -1.2490 n         1 MOL     -0.769011
    124 C39         6.6100   -0.8200   -0.3640 c3        1 MOL      0.706790
    125 C40         5.2690   -1.6430   -0.2410 c         1 MOL      0.258693
    126 O19         4.2250   -1.2520   -0.6710 o         1 MOL     -0.484310
    127 C41         7.1080   -0.3300    1.0290 c3        1 MOL     -0.150346
    128 C42         7.9370   -1.2970    1.8710 ca        1 MOL     -0.004341
    129 C43         7.3500   -1.8570    3.0150 ca        1 MOL     -0.111248
    130 C44         9.1300   -1.7460    1.4010 ca        1 MOL     -0.111248
    131 C45         8.1250   -2.8420    3.7560 ca        1 MOL     -0.282933
    132 C46         9.8320   -2.7420    2.0140 ca        1 MOL     -0.282933
    133 C47         9.3090   -3.3310    3.1780 ca        1 MOL      0.351916
    134 O20         9.8870   -4.5130    3.6120 oh        1 MOL     -0.536771
    135 H56         5.4820    0.7890   -1.1280 hn        1 MOL      0.310716
    136 H57         7.3420   -1.4950   -0.8080 h1        1 MOL     -0.069189
    137 H58         6.2630    0.1340    1.5360 hc        1 MOL      0.059429
    138 H59         7.7190    0.5380    0.8030 hc        1 MOL      0.059429
    139 H60         6.3740   -1.6330    3.4130 ha        1 MOL      0.131423
    140 H61         9.5360   -1.2590    0.5250 ha        1 MOL      0.131423
    141 H62         7.7370   -3.3120    4.6490 ha        1 MOL      0.148268
    142 H63        10.6950   -3.2210    1.5750 ha        1 MOL      0.148268
    143 H64         9.1700   -4.9870    4.0420 ho        1 MOL      0.380504
    144 N13         5.3460   -2.7770    0.4810 n         1 MOL     -0.599728
    145 C48         4.2580   -3.5870    1.0810 c3        1 MOL      0.489147
    146 C49         3.3710   -4.3300   -0.0280 c         1 MOL      0.327365
    147 O21         3.1350   -5.5560    0.0750 o         1 MOL     -0.549459
    148 C50         3.3980   -2.6470    2.0870 c3        1 MOL     -0.404922
    149 C51         2.2450   -3.4090    2.7210 c3        1 MOL     -0.043139
    150 C52         1.8250   -2.7810    4.0970 c         1 MOL      0.696378
    151 O22         1.0750   -1.7370    4.0940 o         1 MOL     -0.724454
    152 O23         2.1220   -3.4040    5.1230 o         1 MOL     -0.724454
    153 H65         6.3080   -3.0380    0.6570 hn        1 MOL      0.259238
    154 H66         4.7130   -4.4080    1.6300 h1        1 MOL     -0.017039
    155 H67         2.9680   -1.8100    1.5430 hc        1 MOL      0.108531
    156 H68         4.0560   -2.3180    2.8900 hc        1 MOL      0.108531
    157 H69         2.5290   -4.4450    2.9300 hc        1 MOL      0.010747
    158 H70         1.3530   -3.3940    2.0960 hc        1 MOL      0.010747
    159 N14         2.8250   -3.5920   -0.9780 n         1 MOL     -0.447145
    160 C53         1.7650   -3.9080   -1.9380 c3        1 MOL      0.048427
    161 C54         2.1700   -4.6830   -3.1450 c         1 MOL      0.400618
    162 O24         1.5810   -4.5720   -4.2230 o         1 MOL     -0.522534
    163 C55         0.9160   -2.6800   -2.3920 c3        1 MOL     -0.214088
    164 C56         0.2890   -1.8800   -1.2590 c3        1 MOL      0.575626
    165 C57        -0.9200   -2.5470   -0.6690 c         1 MOL      0.659414
    166 O25        -0.8230   -3.7550   -0.4170 o         1 MOL     -0.674620
    167 O26        -1.8100   -1.7840   -0.2590 o         1 MOL     -0.674620
    168 H71         3.0430   -2.6100   -0.8690 hn        1 MOL      0.334452
    169 H72         1.0130   -4.5430   -1.4780 h1        1 MOL      0.138439
    170 H73         0.1750   -3.0770   -3.1000 hc        1 MOL      0.032415
    171 H74         1.5750   -1.9770   -2.9070 hc        1 MOL      0.032415
    172 H75         0.0160   -0.8940   -1.6370 hc        1 MOL     -0.155042
    173 H76         1.0280   -1.7580   -0.4660 hc        1 MOL     -0.155042
    174 N15         3.2770   -5.3740   -2.9870 n         1 MOL     -0.193097
    175 C58         4.0120   -6.1670   -3.9320 c3        1 MOL     -0.147890
    176 H77         4.6890   -6.8330   -3.3980 h1        1 MOL      0.064159
    177 H78         3.3180   -6.7580   -4.5300 h1        1 MOL      0.064159
    178 H79         4.5890   -5.5130   -4.5860 h1        1 MOL      0.064159
    179 H80         3.6880   -5.4990   -2.0790 hn        1 MOL      0.240307
    180 Ca1        -3.7110   -1.9780    1.5750 Ca        1 MOL      1.750078
    181 O27        -2.0180   -3.9400    1.9650 oh        1 MOL     -0.877264
    182 H81        -1.5670   -4.6250    2.4570 ho        1 MOL      0.418007
    183 H82        -1.7090   -4.0540    1.0670 ho        1 MOL      0.418007
    184 O28        -5.9000   -1.0620    2.7590 oh        1 MOL     -0.877264
    185 H83        -5.8990   -0.7330    3.6630 ho        1 MOL      0.418007
    186 H84        -6.6560   -0.6350    2.3550 ho        1 MOL      0.418007
    187 O29        -4.2990   -3.2110    3.9390 oh        1 MOL     -0.877264
    188 H85        -4.4810   -2.8910    4.8310 ho        1 MOL      0.418007
    189 H86        -3.6410   -3.9010    4.0600 ho        1 MOL      0.418007
@<TRIPOS>BOND
     1    1    2 1   
     2    1    4 1   
     3    1    5 1   
     4    1    6 1   
     5    2    3 2   
     6    2    7 1   
     7    7    8 1   
     8    7   15 1   
     9    8    9 1   
    10    8   11 1   
    11    8   16 1   
    12    9   10 2   
    13    9   19 1   
    14   11   12 1   
    15   11   17 1   
    16   11   18 1   
    17   12   13 1   
    18   12   14 1   
    19   19   20 1   
    20   19   27 1   
    21   20   21 1   
    22   20   23 1   
    23   20   28 1   
    24   21   22 2   
    25   21   38 1   
    26   23   24 1   
    27   23   25 1   
    28   23   29 1   
    29   24   26 1   
    30   24   30 1   
    31   24   31 1   
    32   25   32 1   
    33   25   33 1   
    34   25   34 1   
    35   26   35 1   
    36   26   36 1   
    37   26   37 1   
    38   38   39 1   
    39   38   46 1   
    40   39   40 1   
    41   39   42 1   
    42   39   47 1   
    43   40   41 2   
    44   40   50 1   
    45   42   43 1   
    46   42   48 1   
    47   42   49 1   
    48   43   44 1   
    49   43   45 1   
    50   50   51 1   
    51   50   54 1   
    52   51   52 1   
    53   51   55 1   
    54   51   56 1   
    55   52   53 2   
    56   52   57 1   
    57   57   58 1   
    58   57   65 1   
    59   58   59 1   
    60   58   61 1   
    61   58   66 1   
    62   59   60 2   
    63   59   69 1   
    64   61   62 1   
    65   61   67 1   
    66   61   68 1   
    67   62   63 1   
    68   62   64 1   
    69   69   70 1   
    70   69   73 1   
    71   70   71 1   
    72   70   74 1   
    73   70   75 1   
    74   71   72 2   
    75   71   76 1   
    76   76   77 1   
    77   76   85 1   
    78   77   78 1   
    79   77   80 1   
    80   77   86 1   
    81   78   79 2   
    82   78   93 1   
    83   80   81 1   
    84   80   87 1   
    85   80   88 1   
    86   81   82 1   
    87   81   89 1   
    88   81   90 1   
    89   82   83 1   
    90   82   84 2   
    91   83   91 1   
    92   83   92 1   
    93   93   94 1   
    94   93  100 1   
    95   94   95 1   
    96   94   97 1   
    97   94  101 1   
    98   95   96 2   
    99   95  109 1   
   100   97   98 1   
   101   97   99 1   
   102   97  102 1   
   103   98  103 1   
   104   98  104 1   
   105   98  105 1   
   106   99  106 1   
   107   99  107 1   
   108   99  108 1   
   109  109  110 1   
   110  109  117 1   
   111  110  111 1   
   112  110  113 1   
   113  110  118 1   
   114  111  112 2   
   115  111  123 1   
   116  113  114 1   
   117  113  119 1   
   118  113  120 1   
   119  114  115 1   
   120  114  116 2   
   121  115  121 1   
   122  115  122 1   
   123  123  124 1   
   124  123  135 1   
   125  124  125 1   
   126  124  127 1   
   127  124  136 1   
   128  125  126 2   
   129  125  144 1   
   130  127  128 1   
   131  127  137 1   
   132  127  138 1   
   133  128  129 ar  
   134  128  130 ar  
   135  129  131 ar  
   136  129  139 1   
   137  130  132 ar  
   138  130  140 1   
   139  131  133 ar  
   140  131  141 1   
   141  132  133 ar  
   142  132  142 1   
   143  133  134 1   
   144  134  143 1   
   145  144  145 1   
   146  144  153 1   
   147  145  146 1   
   148  145  148 1   
   149  145  154 1   
   150  146  147 2   
   151  146  159 1   
   152  148  149 1   
   153  148  155 1   
   154  148  156 1   
   155  149  150 1   
   156  149  157 1   
   157  149  158 1   
   158  150  151 1   
   159  150  152 1   
   160  159  160 1   
   161  159  168 1   
   162  160  161 1   
   163  160  163 1   
   164  160  169 1   
   165  161  162 2   
   166  161  174 1   
   167  163  164 1   
   168  163  170 1   
   169  163  171 1   
   170  164  165 1   
   171  164  172 1   
   172  164  173 1   
   173  165  166 1   
   174  165  167 1   
   175  174  175 1   
   176  174  179 1   
   177  175  176 1   
   178  175  177 1   
   179  175  178 1   
   180  181  182 1   
   181  181  183 1   
   182  184  185 1   
   183  184  186 1   
   184  187  188 1   
   185  187  189 1   
@<TRIPOS>SUBSTRUCTURE
     1 MOL         1 TEMP              0 ****  ****    0 ROOT
