@<TRIPOS>MOLECULE
MOL
  185   180     1     0     0
SMALL
resp


@<TRIPOS>ATOM
      1 C1         -5.5820    1.3810   -3.4970 c3        1 MOL     -0.558419
      2 C2         -6.4570    1.5540   -2.1840 c         1 MOL      0.581517
      3 O1         -6.0220    1.8640   -1.0810 o         1 MOL     -0.523758
      4 H1         -4.7850    2.1240   -3.5020 hc        1 MOL      0.153064
      5 H2         -5.1460    0.3820   -3.5150 hc        1 MOL      0.153064
      6 H3         -6.2120    1.5190   -4.3760 hc        1 MOL      0.153064
      7 N1         -7.8030    1.4110   -2.3580 n         1 MOL     -0.439190
      8 C3         -8.8970    1.5530   -1.4150 c3        1 MOL      0.172181
      9 C4         -8.7580    0.6640   -0.1920 c         1 MOL      0.331572
     10 O2         -8.9480    1.0180    0.9610 o         1 MOL     -0.436272
     11 C5         -9.1370    3.0480   -1.0120 c3        1 MOL     -0.247352
     12 C6        -10.6150    3.3700   -0.7480 c         1 MOL      0.676161
     13 O3        -10.8790    4.5980   -0.7690 o         1 MOL     -0.663618
     14 O4        -11.4290    2.4400   -0.5460 o         1 MOL     -0.663618
     15 H4         -8.1140    1.1840   -3.2950 hn        1 MOL      0.264339
     16 H5         -9.8120    1.1370   -1.8440 h1        1 MOL      0.011052
     17 H6         -8.7760    3.6820   -1.8310 hc        1 MOL      0.085792
     18 H7         -8.5940    3.2750   -0.0960 hc        1 MOL      0.085792
     19 N2         -8.3280   -0.5810   -0.5220 n         1 MOL     -0.245504
     20 C7         -8.2640   -1.6650    0.4770 c3        1 MOL      0.087657
     21 C8         -6.8430   -2.0270    0.9310 c         1 MOL      0.440003
     22 O5         -6.6950   -2.9980    1.6860 o         1 MOL     -0.543256
     23 C9         -9.0400   -2.8490    0.0770 c3        1 MOL      0.098671
     24 C10       -10.4330   -2.5800   -0.1850 c3        1 MOL      0.191776
     25 C11       -11.3620   -3.7710   -0.5180 c3        1 MOL     -0.260121
     26 C12       -10.7690   -4.8090   -1.5110 c3        1 MOL      0.172006
     27 N3        -11.7520   -5.9080   -1.7180 n4        1 MOL     -0.228336
     28 H8         -8.0380   -0.7860   -1.4750 hn        1 MOL      0.144734
     29 H9         -8.7930   -1.2080    1.3190 h1        1 MOL      0.082498
     30 H10        -8.8850   -3.6070    0.8430 hc        1 MOL     -0.036025
     31 H11        -8.7290   -3.2680   -0.8870 hc        1 MOL     -0.036025
     32 H12       -10.5580   -1.7900   -0.9280 hc        1 MOL     -0.016115
     33 H13       -10.8380   -2.1260    0.7290 hc        1 MOL     -0.016115
     34 H14       -12.2780   -3.4600   -1.0210 hc        1 MOL      0.079575
     35 H15       -11.5320   -4.2120    0.4690 hc        1 MOL      0.079575
     36 H16        -9.8330   -5.1950   -1.0980 hx        1 MOL      0.028286
     37 H17       -10.5640   -4.2660   -2.4290 hx        1 MOL      0.028286
     38 H18       -12.6470   -5.5350   -2.0110 hn        1 MOL      0.253381
     39 H19       -11.4860   -6.5260   -2.4710 hn        1 MOL      0.253381
     40 H20       -12.0800   -6.3810   -0.8970 hn        1 MOL      0.253381
     41 N4         -5.8210   -1.2280    0.5730 n         1 MOL     -0.341642
     42 C13        -4.4240   -1.6710    0.6250 c3        1 MOL     -0.155762
     43 C14        -3.9740   -2.0260    2.0210 c         1 MOL      0.713357
     44 O6         -3.9840   -1.1810    2.9110 o         1 MOL     -0.526496
     45 C15        -3.5130   -0.5220    0.0910 c3        1 MOL     -0.075003
     46 C16        -2.0110   -0.8350   -0.2480 c         1 MOL      0.599199
     47 O7         -1.2460    0.0940   -0.5900 o         1 MOL     -0.710252
     48 O8         -1.4660   -1.9380    0.0460 o         1 MOL     -0.710252
     49 H21        -6.0220   -0.3540    0.1000 hn        1 MOL      0.249254
     50 H22        -4.3030   -2.5080   -0.0570 h1        1 MOL      0.066557
     51 H23        -3.3480    0.2030    0.8880 hc        1 MOL      0.083810
     52 H24        -3.9750   -0.0680   -0.7900 hc        1 MOL      0.083810
     53 N5         -3.4210   -3.2440    2.1530 n         1 MOL     -0.334150
     54 C17        -2.9040   -3.7500    3.4330 c3        1 MOL     -0.279188
     55 C18        -1.8040   -2.9560    4.1810 c         1 MOL      0.598694
     56 O9         -1.5070   -3.2900    5.3540 o         1 MOL     -0.555764
     57 H25        -3.3400   -3.9450    1.4240 hn        1 MOL      0.283974
     58 H26        -2.5080   -4.7500    3.2470 h1        1 MOL      0.138846
     59 H27        -3.7360   -3.8350    4.1230 h1        1 MOL      0.138846
     60 N6         -1.2640   -1.9150    3.5340 n         1 MOL     -0.399216
     61 C19        -0.3070   -0.9270    4.1320 c3        1 MOL     -0.012999
     62 C20        -0.4830    0.5800    3.7050 c         1 MOL      0.361764
     63 O10         0.3510    1.4240    4.0670 o         1 MOL     -0.476293
     64 C21         1.1600   -1.4510    4.0710 c3        1 MOL     -0.255721
     65 C22         1.5570   -1.5790    2.6420 c         1 MOL      0.771392
     66 N7          2.6490   -2.2870    2.3010 n         1 MOL     -0.827675
     67 O11         1.0220   -1.0710    1.7000 o         1 MOL     -0.655468
     68 H28        -1.5360   -1.6270    2.5960 hn        1 MOL      0.282887
     69 H29        -0.4700   -0.8910    5.2030 h1        1 MOL      0.125352
     70 H30         1.2610   -2.4520    4.4890 hc        1 MOL      0.107737
     71 H31         1.8940   -0.8010    4.5390 hc        1 MOL      0.107737
     72 H32         2.9700   -2.9950    2.9480 hn        1 MOL      0.334243
     73 H33         2.8040   -2.4620    1.3150 hn        1 MOL      0.334243
     74 N8         -1.5640    0.8870    3.0110 n         1 MOL     -0.095316
     75 C23        -1.8550    2.1810    2.5590 c3        1 MOL     -0.085412
     76 C24        -0.7380    2.8920    1.9080 c         1 MOL      0.600194
     77 O12        -0.3240    3.9260    2.3870 o         1 MOL     -0.559514
     78 H34        -2.3030    0.2060    2.8700 hn        1 MOL      0.129949
     79 H35        -2.3120    2.8870    3.2590 h1        1 MOL      0.073252
     80 H36        -2.5720    2.1350    1.7400 h1        1 MOL      0.073252
     81 N9         -0.2840    2.4640    0.7080 n         1 MOL     -0.418936
     82 C25         0.6110    3.1340   -0.2470 c3        1 MOL      0.479455
     83 C26         1.8540    2.3080   -0.6080 c         1 MOL      0.344351
     84 O13         1.8990    1.0990   -0.4340 o         1 MOL     -0.448103
     85 C27        -0.1530    3.6120   -1.4870 c3        1 MOL     -0.099165
     86 C28        -1.3180    4.5350   -1.0730 ca        1 MOL     -0.016549
     87 C29        -1.1600    5.9130   -0.9690 ca        1 MOL     -0.106288
     88 C30        -2.5900    3.9770   -0.9020 ca        1 MOL     -0.106288
     89 C31        -2.1950    6.7330   -0.5550 ca        1 MOL     -0.304952
     90 C32        -3.6300    4.7830   -0.3130 ca        1 MOL     -0.304952
     91 C33        -3.4470    6.2250   -0.1840 ca        1 MOL      0.424426
     92 O14        -4.5000    6.9390    0.2040 oh        1 MOL     -0.536792
     93 H37        -0.8160    1.6610    0.3940 hn        1 MOL      0.097823
     94 H38         1.0970    3.9750    0.2350 h1        1 MOL     -0.039920
     95 H39        -0.4740    2.7610   -2.0770 hc        1 MOL     -0.000614
     96 H40         0.6210    4.1190   -2.0730 hc        1 MOL     -0.000614
     97 H41        -0.1730    6.3010   -1.1770 ha        1 MOL      0.104118
     98 H42        -2.7320    2.9160   -1.0480 ha        1 MOL      0.104118
     99 H43        -1.9980    7.7930   -0.4690 ha        1 MOL      0.160874
    100 H44        -4.5600    4.3780    0.0590 ha        1 MOL      0.160874
    101 H45        -5.3270    6.4480    0.2900 ho        1 MOL      0.419349
    102 N10         2.9300    2.9600   -1.1900 n         1 MOL     -0.492822
    103 C34         4.2520    2.2670   -1.4610 c3        1 MOL      0.039911
    104 C35         5.0770    2.0480   -0.1710 c         1 MOL      0.503864
    105 O15         5.2600    0.9100    0.2920 o         1 MOL     -0.434236
    106 C36         5.0650    2.9650   -2.6450 c3        1 MOL      0.089512
    107 C37         4.2060    3.2690   -3.8460 c3        1 MOL     -0.014634
    108 C38         6.2790    2.1670   -3.0230 c3        1 MOL     -0.467430
    109 C39         3.3060    2.1340   -4.3390 c3        1 MOL     -0.066514
    110 H46         2.8460    3.9700   -1.2820 hn        1 MOL      0.297425
    111 H47         4.0400    1.2290   -1.7290 h1        1 MOL      0.038025
    112 H48         5.4750    3.9150   -2.3180 hc        1 MOL      0.012251
    113 H49         4.7570    3.5720   -4.7470 hc        1 MOL      0.025369
    114 H50         3.4950    4.0470   -3.5790 hc        1 MOL      0.025369
    115 H51         6.8720    2.7430   -3.7170 hc        1 MOL      0.123126
    116 H52         6.7890    1.8360   -2.1200 hc        1 MOL      0.123126
    117 H53         6.0930    1.2400   -3.5590 hc        1 MOL      0.123126
    118 H54         3.8280    1.1940   -4.1760 hc        1 MOL      0.023226
    119 H55         2.3060    2.0930   -3.9170 hc        1 MOL      0.023226
    120 H56         3.1330    2.2270   -5.4100 hc        1 MOL      0.023226
    121 N11         5.5930    3.1530    0.4560 n         1 MOL     -0.331603
    122 C40         6.2430    3.1490    1.7950 c3        1 MOL     -0.018237
    123 C41         7.3980    2.1530    1.9010 c         1 MOL      0.341917
    124 O16         7.5000    1.4730    2.9590 o         1 MOL     -0.493044
    125 C42         6.6370    4.6100    2.1520 c3        1 MOL     -0.010491
    126 O17         7.0550    5.3340    1.0010 oh        1 MOL     -0.595656
    127 H57         5.5390    4.0820    0.0380 hn        1 MOL      0.242469
    128 H58         5.5010    2.8900    2.5560 h1        1 MOL      0.115703
    129 H59         7.4380    4.5600    2.8880 h1        1 MOL      0.100791
    130 H60         5.7710    5.0430    2.6520 h1        1 MOL      0.100791
    131 H61         6.9630    6.2670    1.2020 ho        1 MOL      0.421037
    132 N12         8.2680    2.1330    0.9240 n         1 MOL     -0.112875
    133 C43         9.4720    1.3010    0.7880 c3        1 MOL      0.296090
    134 C44         9.2760   -0.1720    0.9800 c         1 MOL      0.475652
    135 O18        10.1600   -0.8310    1.5170 o         1 MOL     -0.519059
    136 C45        10.6580    1.9390    1.5190 c3        1 MOL     -0.450435
    137 H62         8.1350    2.8470    0.2140 hn        1 MOL      0.172370
    138 H63         9.7960    1.3770   -0.2520 h1        1 MOL      0.013776
    139 H64        10.6110    3.0060    1.2740 hc        1 MOL      0.122098
    140 H65        10.6170    1.6360    2.5710 hc        1 MOL      0.122098
    141 H66        11.5710    1.6730    0.9920 hc        1 MOL      0.122098
    142 N13         8.0660   -0.6940    0.6690 n         1 MOL     -0.640511
    143 C46         7.7100   -2.0740    0.8490 c3        1 MOL      0.504724
    144 C47         6.7310   -2.4920   -0.2640 c         1 MOL      0.362838
    145 O19         6.2580   -1.6700   -1.0570 o         1 MOL     -0.403825
    146 C48         6.9830   -2.2940    2.1340 c3        1 MOL     -0.478724
    147 H67         7.3660   -0.0760    0.2930 hn        1 MOL      0.204113
    148 H68         8.5440   -2.7630    0.8560 h1        1 MOL     -0.018314
    149 H69         7.0540   -3.3060    2.5410 hc        1 MOL      0.139042
    150 H70         7.4670   -1.6390    2.8520 hc        1 MOL      0.139042
    151 H71         5.9550   -1.9300    2.0230 hc        1 MOL      0.139042
    152 N14         6.6120   -3.8430   -0.4470 n         1 MOL     -0.539029
    153 C49         6.0400   -4.3870   -1.7140 c3        1 MOL      0.184743
    154 C50         6.8420   -4.0570   -2.9920 c         1 MOL      0.362595
    155 O20         6.2170   -3.8200   -3.9950 o         1 MOL     -0.455718
    156 C51         4.4600   -4.3850   -1.8390 c3        1 MOL      0.040334
    157 C52         3.7860   -4.8900   -0.5640 c3        1 MOL     -0.080603
    158 C53         2.2460   -4.7530   -0.7190 c         1 MOL      0.645741
    159 O21         1.5720   -5.6630   -1.2240 o         1 MOL     -0.677558
    160 O22         1.7080   -3.6760   -0.3220 o         1 MOL     -0.677558
    161 H72         7.0170   -4.4560    0.2470 hn        1 MOL      0.310798
    162 H73         6.2800   -5.4430   -1.5670 h1        1 MOL      0.027209
    163 H74         4.2040   -5.0610   -2.6610 hc        1 MOL     -0.009190
    164 H75         4.1590   -3.3830   -2.1530 hc        1 MOL     -0.009190
    165 H76         4.0430   -4.2050    0.2560 hc        1 MOL      0.003475
    166 H77         4.0920   -5.9000   -0.2990 hc        1 MOL      0.003475
    167 N15         8.1810   -3.8120   -2.8830 n         1 MOL     -0.353610
    168 C54         8.9480   -3.2380   -4.0310 c3        1 MOL      0.053838
    169 H78         9.3200   -2.2500   -3.7600 h1        1 MOL      0.039910
    170 H79         9.7900   -3.8900   -4.2680 h1        1 MOL      0.039910
    171 H80         8.2960   -3.1550   -4.9000 h1        1 MOL      0.039910
    172 H81         8.6200   -3.9290   -1.9870 hn        1 MOL      0.234699
    173 Ca1         1.0110   -1.2800   -0.9830 Ca        1 MOL      1.761127
    174 O23         0.0570    0.2800   -2.7910 oh        1 MOL     -0.849806
    175 H82        -0.6920    0.5640   -2.2540 ho        1 MOL      0.416791
    176 H83         0.0290    0.8510   -3.5570 ho        1 MOL      0.416791
    177 O24         2.4290   -1.2490   -3.4460 oh        1 MOL     -0.849806
    178 H84         2.0100   -1.2280   -4.3070 ho        1 MOL      0.416791
    179 H85         3.3710   -1.1910   -3.6370 ho        1 MOL      0.416791
    180 O25         3.6540   -1.1820   -0.3600 oh        1 MOL     -0.849806
    181 H86         4.5220   -1.4150   -0.6750 ho        1 MOL      0.416791
    182 H87         3.7680   -0.3320    0.0560 ho        1 MOL      0.416791
    183 O26        -0.2150   -3.5480   -2.3880 oh        1 MOL     -0.849806
    184 H88         0.0110   -3.9730   -3.2110 ho        1 MOL      0.416791
    185 H89        -0.0980   -4.2290   -1.7260 ho        1 MOL      0.416791
@<TRIPOS>BOND
     1    1    2 1   
     2    1    4 1   
     3    1    5 1   
     4    1    6 1   
     5    2    3 2   
     6    2    7 1   
     7    7    8 1   
     8    7   15 1   
     9    8    9 1   
    10    8   11 1   
    11    8   16 1   
    12    9   10 2   
    13    9   19 1   
    14   11   12 1   
    15   11   17 1   
    16   11   18 1   
    17   12   13 1   
    18   12   14 1   
    19   19   20 1   
    20   19   28 1   
    21   20   21 1   
    22   20   23 1   
    23   20   29 1   
    24   21   22 2   
    25   21   41 1   
    26   23   24 1   
    27   23   30 1   
    28   23   31 1   
    29   24   25 1   
    30   24   32 1   
    31   24   33 1   
    32   25   26 1   
    33   25   34 1   
    34   25   35 1   
    35   26   27 1   
    36   26   36 1   
    37   26   37 1   
    38   27   38 1   
    39   27   39 1   
    40   27   40 1   
    41   41   42 1   
    42   41   49 1   
    43   42   43 1   
    44   42   45 1   
    45   42   50 1   
    46   43   44 2   
    47   43   53 1   
    48   45   46 1   
    49   45   51 1   
    50   45   52 1   
    51   46   47 1   
    52   46   48 1   
    53   53   54 1   
    54   53   57 1   
    55   54   55 1   
    56   54   58 1   
    57   54   59 1   
    58   55   56 2   
    59   55   60 1   
    60   60   61 1   
    61   60   68 1   
    62   61   62 1   
    63   61   64 1   
    64   61   69 1   
    65   62   63 2   
    66   62   74 1   
    67   64   65 1   
    68   64   70 1   
    69   64   71 1   
    70   65   66 1   
    71   65   67 2   
    72   66   72 1   
    73   66   73 1   
    74   74   75 1   
    75   74   78 1   
    76   75   76 1   
    77   75   79 1   
    78   75   80 1   
    79   76   77 2   
    80   76   81 1   
    81   81   82 1   
    82   81   93 1   
    83   82   83 1   
    84   82   85 1   
    85   82   94 1   
    86   83   84 2   
    87   83  102 1   
    88   85   86 1   
    89   85   95 1   
    90   85   96 1   
    91   86   87 ar  
    92   86   88 ar  
    93   87   89 ar  
    94   87   97 1   
    95   88   90 ar  
    96   88   98 1   
    97   89   91 ar  
    98   89   99 1   
    99   90   91 ar  
   100   90  100 1   
   101   91   92 1   
   102   92  101 1   
   103  102  103 1   
   104  102  110 1   
   105  103  104 1   
   106  103  106 1   
   107  103  111 1   
   108  104  105 2   
   109  104  121 1   
   110  106  107 1   
   111  106  108 1   
   112  106  112 1   
   113  107  109 1   
   114  107  113 1   
   115  107  114 1   
   116  108  115 1   
   117  108  116 1   
   118  108  117 1   
   119  109  118 1   
   120  109  119 1   
   121  109  120 1   
   122  121  122 1   
   123  121  127 1   
   124  122  123 1   
   125  122  125 1   
   126  122  128 1   
   127  123  124 2   
   128  123  132 1   
   129  125  126 1   
   130  125  129 1   
   131  125  130 1   
   132  126  131 1   
   133  132  133 1   
   134  132  137 1   
   135  133  134 1   
   136  133  136 1   
   137  133  138 1   
   138  134  135 2   
   139  134  142 1   
   140  136  139 1   
   141  136  140 1   
   142  136  141 1   
   143  142  143 1   
   144  142  147 1   
   145  143  144 1   
   146  143  146 1   
   147  143  148 1   
   148  144  145 2   
   149  144  152 1   
   150  146  149 1   
   151  146  150 1   
   152  146  151 1   
   153  152  153 1   
   154  152  161 1   
   155  153  154 1   
   156  153  156 1   
   157  153  162 1   
   158  154  155 2   
   159  154  167 1   
   160  156  157 1   
   161  156  163 1   
   162  156  164 1   
   163  157  158 1   
   164  157  165 1   
   165  157  166 1   
   166  158  159 1   
   167  158  160 1   
   168  167  168 1   
   169  167  172 1   
   170  168  169 1   
   171  168  170 1   
   172  168  171 1   
   173  174  175 1   
   174  174  176 1   
   175  177  178 1   
   176  177  179 1   
   177  180  181 1   
   178  180  182 1   
   179  183  184 1   
   180  183  185 1   
@<TRIPOS>SUBSTRUCTURE
     1 MOL         1 TEMP              0 ****  ****    0 ROOT
