@<TRIPOS>MOLECULE
MOL
  198   191     1     0     0
SMALL
resp


@<TRIPOS>ATOM
      1 C1          1.0070    9.5530   -5.0850 c3        1 MOL     -0.350920
      2 C2          1.0490    8.4630   -3.8870 c         1 MOL      0.625650
      3 O1          1.9390    7.6260   -3.8000 o         1 MOL     -0.571392
      4 H1          0.0280   10.0330   -5.1040 hc        1 MOL      0.086415
      5 H2          1.7760   10.3070   -4.9180 hc        1 MOL      0.086415
      6 H3          1.1850    9.0540   -6.0380 hc        1 MOL      0.086415
      7 N1          0.1970    8.7550   -2.8980 n         1 MOL     -0.435005
      8 C3          0.1850    8.1440   -1.5770 c3        1 MOL      0.004981
      9 C4         -0.2530    6.6570   -1.6450 c         1 MOL      0.570095
     10 O2         -1.0020    6.2660   -2.5360 o         1 MOL     -0.530345
     11 C5         -0.8180    8.9250   -0.6280 c3        1 MOL     -0.132412
     12 C6         -2.2560    9.0530   -0.9810 c         1 MOL      0.676841
     13 O3         -2.4940    9.6060   -2.0560 o         1 MOL     -0.640574
     14 O4         -3.0620    8.5340   -0.2130 o         1 MOL     -0.640574
     15 H4         -0.4350    9.5290   -3.0220 hn        1 MOL      0.279631
     16 H5          1.2050    8.1710   -1.1890 h1        1 MOL      0.051086
     17 H6         -0.4460    9.9370   -0.4780 hc        1 MOL      0.018477
     18 H7         -0.7960    8.4600    0.3570 hc        1 MOL      0.018477
     19 N2          0.1800    5.8640   -0.7010 n         1 MOL     -0.358663
     20 C7         -0.0160    4.4170   -0.6930 c3        1 MOL     -0.240313
     21 C8          0.4470    3.9400    0.6720 c         1 MOL      0.606251
     22 O5          1.4520    4.3420    1.2460 o         1 MOL     -0.539941
     23 C9          0.8280    3.8720   -1.8170 c3        1 MOL     -0.040888
     24 C10         1.5720    2.5710   -1.6270 c3        1 MOL      0.122049
     25 C11         2.9780    2.6450   -0.9970 c3        1 MOL     -0.057631
     26 C12         3.4420    1.1780   -0.8060 c3        1 MOL      0.116828
     27 N3          4.5580    1.0580    0.0940 n4        1 MOL     -0.234643
     28 H8          0.7730    6.2200    0.0400 hn        1 MOL      0.246083
     29 H9         -1.0760    4.1780   -0.7420 h1        1 MOL      0.190128
     30 H10         1.5260    4.5710   -2.2760 hc        1 MOL      0.043786
     31 H11         0.1260    3.7360   -2.6350 hc        1 MOL      0.043786
     32 H12         1.6970    2.1030   -2.6030 hc        1 MOL     -0.017380
     33 H13         0.8950    1.9140   -1.0850 hc        1 MOL     -0.017380
     34 H14         2.9450    2.9870    0.0300 hc        1 MOL      0.026986
     35 H15         3.7470    3.2300   -1.4920 hc        1 MOL      0.026986
     36 H16         3.7150    0.8490   -1.8040 hx        1 MOL      0.013551
     37 H17         2.5960    0.5560   -0.4930 hx        1 MOL      0.013551
     38 H18         4.8650    0.0940    0.1400 hn        1 MOL      0.284189
     39 H19         5.2980    1.6630   -0.2170 hn        1 MOL      0.284189
     40 H20         4.3300    1.3160    1.0440 hn        1 MOL      0.284189
     41 N4         -0.1910    2.8090    1.1310 n         1 MOL     -0.468987
     42 C13         0.0650    2.0130    2.3140 c3        1 MOL      0.180373
     43 C14         0.0700    0.4980    2.0470 c         1 MOL      0.563854
     44 O6         -0.3770    0.1240    0.9910 o         1 MOL     -0.552532
     45 C15        -1.0580    2.3660    3.3040 c3        1 MOL     -0.468118
     46 C16        -2.5100    2.1670    2.7960 c         1 MOL      0.808925
     47 O7         -3.4140    2.5030    3.6350 o         1 MOL     -0.755309
     48 O8         -2.8020    1.7690    1.6680 o         1 MOL     -0.755309
     49 H21        -0.9130    2.4970    0.4920 hn        1 MOL      0.294757
     50 H22         0.9650    2.2830    2.8740 h1        1 MOL      0.110492
     51 H23        -1.0290    3.4010    3.6610 hc        1 MOL      0.131748
     52 H24        -0.8460    1.6220    4.0600 hc        1 MOL      0.131748
     53 N5          0.6130   -0.4480    2.7980 n         1 MOL     -0.420648
     54 C17         1.4040   -0.2940    3.9420 c3        1 MOL     -0.017121
     55 C18         2.8300    0.2470    3.8590 c         1 MOL      0.432715
     56 O9          3.1740    1.0310    2.9380 o         1 MOL     -0.509027
     57 H25         0.5300   -1.4000    2.4720 hn        1 MOL      0.295988
     58 H26         1.3450   -1.2660    4.4310 h1        1 MOL      0.049964
     59 H27         0.8400    0.2620    4.6860 h1        1 MOL      0.049964
     60 N6          3.6830    0.0330    4.9010 n         1 MOL     -0.385644
     61 C19         5.0550    0.5140    5.0050 c3        1 MOL      0.034248
     62 C20         5.9420    0.1100    3.7540 c         1 MOL      0.502512
     63 O10         6.3550    0.8480    2.8390 o         1 MOL     -0.507364
     64 C21         5.5330   -0.1350    6.2840 c3        1 MOL     -0.194340
     65 C22         6.9260    0.3050    6.5790 c         1 MOL      0.764366
     66 O11         7.6170   -0.5030    7.2740 o         1 MOL     -0.682074
     67 O12         7.2450    1.4770    6.3920 o         1 MOL     -0.682074
     68 H28         3.3320   -0.4800    5.6970 hn        1 MOL      0.236302
     69 H29         4.9660    1.5870    5.0710 h1        1 MOL      0.129062
     70 H30         5.4890   -1.2290    6.2200 hc        1 MOL      0.034191
     71 H31         4.9010    0.2630    7.0740 hc        1 MOL      0.034191
     72 N7          6.0740   -1.2060    3.6980 n         1 MOL     -0.449984
     73 C23         6.9150   -1.8060    2.6650 c3        1 MOL     -0.160706
     74 C24         6.3520   -1.9610    1.2310 c         1 MOL      0.480823
     75 O13         5.2090   -1.5060    0.8840 o         1 MOL     -0.485690
     76 H32         5.6000   -1.8960    4.2720 hn        1 MOL      0.340615
     77 H33         7.2590   -2.7820    3.0000 h1        1 MOL      0.139590
     78 H34         7.8070   -1.1960    2.5250 h1        1 MOL      0.139590
     79 N8          7.1850   -2.4460    0.2760 n         1 MOL     -0.420556
     80 C25         6.9700   -2.7210   -1.1180 c3        1 MOL     -0.047795
     81 C26         6.2040   -1.6840   -1.9300 c         1 MOL      0.450860
     82 O14         6.3230   -0.4660   -1.7330 o         1 MOL     -0.478225
     83 C27         8.3460   -3.0490   -1.7790 c3        1 MOL      0.323063
     84 C28         9.3640   -1.8730   -1.4580 c3        1 MOL     -0.363033
     85 O15         8.9120   -4.2400   -1.3170 oh        1 MOL     -0.595357
     86 H35         7.9820   -2.9400    0.6600 hn        1 MOL      0.312189
     87 H36         6.4000   -3.6330   -1.2700 h1        1 MOL      0.042322
     88 H37         8.2560   -3.1900   -2.8600 h1        1 MOL      0.013403
     89 H38         9.0040   -4.8410   -2.0560 ho        1 MOL      0.401285
     90 H39         9.7150   -2.0030   -0.4370 hc        1 MOL      0.115725
     91 H40        10.2480   -1.9780   -2.0880 hc        1 MOL      0.115725
     92 H41         8.8980   -0.9190   -1.6880 hc        1 MOL      0.115725
     93 N9          5.3830   -2.1010   -2.9150 n         1 MOL     -0.405469
     94 C29         4.3380   -1.3200   -3.5910 c3        1 MOL      0.063764
     95 C30         2.9820   -1.5610   -2.9590 c         1 MOL      0.599868
     96 O16         2.1710   -0.6410   -2.8740 o         1 MOL     -0.521494
     97 C31         4.2340   -1.7140   -5.1080 c3        1 MOL      0.071990
     98 C32         5.5400   -1.6240   -5.8660 c3        1 MOL     -0.010570
     99 C33         3.1130   -0.9550   -5.7690 c3        1 MOL     -0.286111
    100 C34         6.4160   -0.2680   -5.8270 c3        1 MOL     -0.355268
    101 H42         5.4510   -3.0810   -3.1750 hn        1 MOL      0.261880
    102 H43         4.5570   -0.2640   -3.4950 h1        1 MOL      0.086027
    103 H44         4.0430   -2.7860   -5.1110 hc        1 MOL      0.003548
    104 H45         5.3780   -1.8110   -6.9330 hc        1 MOL      0.021066
    105 H46         6.1300   -2.5030   -5.5800 hc        1 MOL      0.021066
    106 H47         2.1480   -1.4000   -5.5100 hc        1 MOL      0.089119
    107 H48         3.0640    0.1010   -5.5060 hc        1 MOL      0.089119
    108 H49         3.2280   -1.1370   -6.8410 hc        1 MOL      0.089119
    109 H50         7.2360   -0.3500   -6.5500 hc        1 MOL      0.106270
    110 H51         5.8000    0.5480   -6.2030 hc        1 MOL      0.106270
    111 H52         6.8140   -0.0090   -4.8450 hc        1 MOL      0.106270
    112 N10         2.7850   -2.8030   -2.4890 n         1 MOL     -0.483903
    113 C35         1.6570   -3.1590   -1.5950 c3        1 MOL     -0.027606
    114 C36         1.1130   -4.5730   -1.7790 c         1 MOL      0.491371
    115 O17         1.7550   -5.5530   -2.2170 o         1 MOL     -0.532421
    116 C37         2.1050   -3.1350   -0.0940 c3        1 MOL      0.264518
    117 C38         3.1580   -4.1630    0.3430 c3        1 MOL     -0.328183
    118 O18         2.5730   -1.8330    0.2580 oh        1 MOL     -0.502909
    119 H53         3.4930   -3.5080   -2.6100 hn        1 MOL      0.260323
    120 H54         0.8570   -2.4230   -1.6660 h1        1 MOL      0.116151
    121 H55         1.1980   -3.3560    0.4620 h1        1 MOL      0.043846
    122 H56         3.5040   -1.9240    0.4680 ho        1 MOL      0.310842
    123 H57         3.3200   -4.0300    1.4140 hc        1 MOL      0.094199
    124 H58         2.8290   -5.1960    0.2460 hc        1 MOL      0.094199
    125 H59         4.0860   -4.0600   -0.2040 hc        1 MOL      0.094199
    126 N11        -0.1690   -4.7100   -1.4550 n         1 MOL     -0.370001
    127 C39        -0.7680   -6.0080   -1.4510 c3        1 MOL      0.175967
    128 C40        -2.2410   -5.8180   -1.8610 c         1 MOL      0.383940
    129 O19        -2.6660   -6.1840   -2.9390 o         1 MOL     -0.518124
    130 C41        -0.6630   -6.5950   -0.0570 c3        1 MOL      0.183418
    131 C42        -1.2140   -8.0090    0.0240 c3        1 MOL     -0.370789
    132 O20        -1.3720   -5.7790    0.9170 oh        1 MOL     -0.623198
    133 H60        -0.7390   -3.9670   -1.0750 hn        1 MOL      0.229240
    134 H61        -0.3900   -6.7400   -2.1650 h1        1 MOL      0.067078
    135 H62         0.4130   -6.6380    0.1340 h1        1 MOL      0.083601
    136 H63        -2.1280   -6.3060    1.1890 ho        1 MOL      0.398273
    137 H64        -0.5990   -8.5900   -0.6610 hc        1 MOL      0.103678
    138 H65        -1.0270   -8.4220    1.0210 hc        1 MOL      0.103678
    139 H66        -2.2900   -8.0990   -0.1250 hc        1 MOL      0.103678
    140 N12        -2.9470   -4.9700   -1.1280 n         1 MOL     -0.291372
    141 C43        -4.3780   -4.7250   -1.2170 c3        1 MOL     -0.171851
    142 C44        -4.7520   -3.4140   -0.6010 c         1 MOL      0.564980
    143 O21        -4.1960   -3.1180    0.4610 o         1 MOL     -0.495926
    144 C45        -5.0250   -5.9810   -0.6300 c3        1 MOL      0.129244
    145 C46        -6.5680   -5.8740   -0.7090 c3        1 MOL     -0.274026
    146 C47        -7.1050   -7.1800   -0.0340 c3        1 MOL      0.035692
    147 C48        -8.6550   -7.3120    0.1520 c3        1 MOL      0.100658
    148 N13        -9.0310   -8.4890    0.8860 n4        1 MOL     -0.320875
    149 H67        -2.5310   -4.6520   -0.2710 hn        1 MOL      0.240033
    150 H68        -4.7120   -4.7330   -2.2540 h1        1 MOL      0.128677
    151 H69        -4.6980   -6.1470    0.4010 hc        1 MOL      0.019682
    152 H70        -4.7030   -6.8820   -1.1480 hc        1 MOL      0.019682
    153 H71        -6.9800   -5.9570   -1.7090 hc        1 MOL      0.101248
    154 H72        -6.8170   -5.0080   -0.0980 hc        1 MOL      0.101248
    155 H73        -6.5990   -7.2820    0.9280 hc        1 MOL      0.007790
    156 H74        -6.8470   -8.0750   -0.6050 hc        1 MOL      0.007790
    157 H75        -9.1450   -7.2860   -0.8240 hx        1 MOL      0.055364
    158 H76        -9.0670   -6.4170    0.6090 hx        1 MOL      0.055364
    159 H77       -10.0250   -8.4420    1.0560 hn        1 MOL      0.243496
    160 H78        -8.8570   -9.2700    0.2820 hn        1 MOL      0.243496
    161 H79        -8.5600   -8.5190    1.7800 hn        1 MOL      0.243496
    162 N14        -5.6540   -2.6940   -1.2700 n         1 MOL     -0.344561
    163 C49        -6.1430   -1.4580   -0.8270 c3        1 MOL     -0.037860
    164 C50        -4.9440   -0.4630   -0.6000 c         1 MOL      0.396017
    165 O22        -4.8130    0.0350    0.5160 o         1 MOL     -0.556347
    166 C51        -7.1230   -0.8530   -1.8240 c3        1 MOL     -0.072961
    167 C52        -7.5500    0.6180   -1.5630 c3        1 MOL      0.006192
    168 C53        -8.2220    0.7390   -0.1470 c         1 MOL      0.638471
    169 O23        -7.4850    0.9590    0.8820 o         1 MOL     -0.687256
    170 O24        -9.4840    0.7360   -0.0960 o         1 MOL     -0.687256
    171 H80        -5.9050   -3.0110   -2.1990 hn        1 MOL      0.214468
    172 H81        -6.7370   -1.5800    0.0740 h1        1 MOL      0.083525
    173 H82        -8.0350   -1.4600   -1.7600 hc        1 MOL      0.043432
    174 H83        -6.7910   -0.8290   -2.8620 hc        1 MOL      0.043432
    175 H84        -8.3380    0.7610   -2.2990 hc        1 MOL     -0.010280
    176 H85        -6.6960    1.2950   -1.6320 hc        1 MOL     -0.010280
    177 N15        -3.9870   -0.2710   -1.5430 n         1 MOL     -0.207472
    178 C54        -4.0190   -0.6910   -2.9780 c3        1 MOL     -0.305376
    179 H86        -4.5730    0.0460   -3.5600 h1        1 MOL      0.120929
    180 H87        -3.0000   -0.7620   -3.3600 h1        1 MOL      0.120929
    181 H88        -4.5080   -1.6610   -3.0630 h1        1 MOL      0.120929
    182 H89        -3.1770    0.2820   -1.3050 hn        1 MOL      0.304275
    183 Ca1        -5.3300    2.0980    2.0890 Ca        1 MOL      1.776040
    184 O25        -5.6560   -0.3370    3.1610 oh        1 MOL     -0.839190
    185 H90        -6.4640   -0.8560    3.2130 ho        1 MOL      0.414615
    186 H91        -4.9750   -0.9820    3.0060 ho        1 MOL      0.414615
    187 O26        -7.3850    3.7830    2.0650 oh        1 MOL     -0.839190
    188 H92        -7.4220    4.7370    2.0830 ho        1 MOL      0.414615
    189 H93        -8.3070    3.5240    2.0360 ho        1 MOL      0.414615
    190 O27        -5.3460    3.1380   -0.3860 oh        1 MOL     -0.839190
    191 H94        -6.2100    3.2980   -0.7600 ho        1 MOL      0.414615
    192 H95        -4.7430    3.5900   -0.9880 ho        1 MOL      0.414615
    193 O28        -4.6020    4.8500    1.8910 oh        1 MOL     -0.839190
    194 H96        -5.1090    5.5330    2.3280 ho        1 MOL      0.414615
    195 H97        -3.7260    5.2350    1.7790 ho        1 MOL      0.414615
    196 O29        -6.0310    2.4720    4.7660 oh        1 MOL     -0.839190
    197 H98        -6.8170    1.9760    4.9750 ho        1 MOL      0.414615
    198 H99        -5.5870    2.5640    5.6110 ho        1 MOL      0.414615
@<TRIPOS>BOND
     1    1    2 1   
     2    1    4 1   
     3    1    5 1   
     4    1    6 1   
     5    2    3 2   
     6    2    7 1   
     7    7    8 1   
     8    7   15 1   
     9    8    9 1   
    10    8   11 1   
    11    8   16 1   
    12    9   10 2   
    13    9   19 1   
    14   11   12 1   
    15   11   17 1   
    16   11   18 1   
    17   12   13 1   
    18   12   14 1   
    19   19   20 1   
    20   19   28 1   
    21   20   21 1   
    22   20   23 1   
    23   20   29 1   
    24   21   22 2   
    25   21   41 1   
    26   23   24 1   
    27   23   30 1   
    28   23   31 1   
    29   24   25 1   
    30   24   32 1   
    31   24   33 1   
    32   25   26 1   
    33   25   34 1   
    34   25   35 1   
    35   26   27 1   
    36   26   36 1   
    37   26   37 1   
    38   27   38 1   
    39   27   39 1   
    40   27   40 1   
    41   41   42 1   
    42   41   49 1   
    43   42   43 1   
    44   42   45 1   
    45   42   50 1   
    46   43   44 2   
    47   43   53 1   
    48   45   46 1   
    49   45   51 1   
    50   45   52 1   
    51   46   47 1   
    52   46   48 1   
    53   53   54 1   
    54   53   57 1   
    55   54   55 1   
    56   54   58 1   
    57   54   59 1   
    58   55   56 2   
    59   55   60 1   
    60   60   61 1   
    61   60   68 1   
    62   61   62 1   
    63   61   64 1   
    64   61   69 1   
    65   62   63 2   
    66   62   72 1   
    67   64   65 1   
    68   64   70 1   
    69   64   71 1   
    70   65   66 1   
    71   65   67 1   
    72   72   73 1   
    73   72   76 1   
    74   73   74 1   
    75   73   77 1   
    76   73   78 1   
    77   74   75 2   
    78   74   79 1   
    79   79   80 1   
    80   79   86 1   
    81   80   81 1   
    82   80   83 1   
    83   80   87 1   
    84   81   82 2   
    85   81   93 1   
    86   83   84 1   
    87   83   85 1   
    88   83   88 1   
    89   84   90 1   
    90   84   91 1   
    91   84   92 1   
    92   85   89 1   
    93   93   94 1   
    94   93  101 1   
    95   94   95 1   
    96   94   97 1   
    97   94  102 1   
    98   95   96 2   
    99   95  112 1   
   100   97   98 1   
   101   97   99 1   
   102   97  103 1   
   103   98  100 1   
   104   98  104 1   
   105   98  105 1   
   106   99  106 1   
   107   99  107 1   
   108   99  108 1   
   109  100  109 1   
   110  100  110 1   
   111  100  111 1   
   112  112  113 1   
   113  112  119 1   
   114  113  114 1   
   115  113  116 1   
   116  113  120 1   
   117  114  115 2   
   118  114  126 1   
   119  116  117 1   
   120  116  118 1   
   121  116  121 1   
   122  117  123 1   
   123  117  124 1   
   124  117  125 1   
   125  118  122 1   
   126  126  127 1   
   127  126  133 1   
   128  127  128 1   
   129  127  130 1   
   130  127  134 1   
   131  128  129 2   
   132  128  140 1   
   133  130  131 1   
   134  130  132 1   
   135  130  135 1   
   136  131  137 1   
   137  131  138 1   
   138  131  139 1   
   139  132  136 1   
   140  140  141 1   
   141  140  149 1   
   142  141  142 1   
   143  141  144 1   
   144  141  150 1   
   145  142  143 2   
   146  142  162 1   
   147  144  145 1   
   148  144  151 1   
   149  144  152 1   
   150  145  146 1   
   151  145  153 1   
   152  145  154 1   
   153  146  147 1   
   154  146  155 1   
   155  146  156 1   
   156  147  148 1   
   157  147  157 1   
   158  147  158 1   
   159  148  159 1   
   160  148  160 1   
   161  148  161 1   
   162  162  163 1   
   163  162  171 1   
   164  163  164 1   
   165  163  166 1   
   166  163  172 1   
   167  164  165 2   
   168  164  177 1   
   169  166  167 1   
   170  166  173 1   
   171  166  174 1   
   172  167  168 1   
   173  167  175 1   
   174  167  176 1   
   175  168  169 1   
   176  168  170 1   
   177  177  178 1   
   178  177  182 1   
   179  178  179 1   
   180  178  180 1   
   181  178  181 1   
   182  184  185 1   
   183  184  186 1   
   184  187  188 1   
   185  187  189 1   
   186  190  191 1   
   187  190  192 1   
   188  193  194 1   
   189  193  195 1   
   190  196  197 1   
   191  196  198 1   
@<TRIPOS>SUBSTRUCTURE
     1 MOL         1 TEMP              0 ****  ****    0 ROOT
