@<TRIPOS>MOLECULE
MOL
  184   179     1     0     0
SMALL
resp


@<TRIPOS>ATOM
      1 C1          1.1340    5.9240   -1.5400 c3        1 MOL     -0.402768
      2 C2          2.4880    5.9070   -0.8720 c         1 MOL      0.683559
      3 O1          2.6510    6.2500    0.3090 o         1 MOL     -0.592500
      4 H1          0.4270    6.4670   -0.9120 hc        1 MOL      0.099897
      5 H2          1.2120    6.4180   -2.5080 hc        1 MOL      0.099897
      6 H3          0.7850    4.9010   -1.6810 hc        1 MOL      0.099897
      7 N1          3.5630    5.6320   -1.6550 n         1 MOL     -0.572158
      8 C3          4.9120    5.6820   -1.0770 c3        1 MOL      0.096730
      9 C4          5.1650    4.4760   -0.1190 c         1 MOL      0.612198
     10 O2          5.7760    3.4890   -0.5760 o         1 MOL     -0.510542
     11 C5          6.0070    5.7350   -2.1340 c3        1 MOL     -0.044411
     12 C6          7.2890    6.1160   -1.4940 c         1 MOL      0.677508
     13 O3          8.2680    5.5300   -2.0210 o         1 MOL     -0.724313
     14 O4          7.3190    6.8930   -0.4970 o         1 MOL     -0.724313
     15 H4          3.4600    5.3100   -2.6080 hn        1 MOL      0.305297
     16 H5          4.9770    6.5590   -0.4270 h1        1 MOL      0.053126
     17 H6          5.7640    6.5130   -2.8630 hc        1 MOL     -0.019014
     18 H7          6.0350    4.7820   -2.6450 hc        1 MOL     -0.019014
     19 N2          4.6470    4.4310    1.1210 n         1 MOL     -0.751594
     20 C7          5.0030    3.4090    2.0720 c3        1 MOL      0.704783
     21 C8          3.8540    2.5710    2.5930 c         1 MOL      0.313877
     22 O5          2.6920    2.9890    2.6590 o         1 MOL     -0.543501
     23 C9          5.8440    4.0590    3.2220 c3        1 MOL     -0.412035
     24 H8          4.0740    5.1680    1.5140 hn        1 MOL      0.350640
     25 H9          5.6240    2.6660    1.5680 h1        1 MOL     -0.081247
     26 H10         5.1470    4.7050    3.7610 hc        1 MOL      0.091356
     27 H11         6.1270    3.2330    3.8730 hc        1 MOL      0.091356
     28 H12         6.6650    4.6420    2.8000 hc        1 MOL      0.091356
     29 N3          4.0340    1.3180    3.1280 n         1 MOL     -0.360062
     30 C10         5.2840    0.5050    3.1720 c3        1 MOL      0.090784
     31 C11         5.6130   -0.2800    1.9260 c         1 MOL      0.467037
     32 O6          4.6700   -0.5940    1.1300 o         1 MOL     -0.549091
     33 C12         5.4920   -0.4150    4.4200 c3        1 MOL     -0.298061
     34 C13         4.2140   -1.2110    4.8930 c         1 MOL      0.713377
     35 O7          3.8670   -1.2050    6.0940 o         1 MOL     -0.693120
     36 O8          3.5080   -1.7590    4.0340 o         1 MOL     -0.693120
     37 H13         3.1770    0.9510    3.4990 hn        1 MOL      0.317022
     38 H14         6.2080    1.0800    3.2210 h1        1 MOL      0.040857
     39 H15         5.9240    0.1650    5.2280 hc        1 MOL      0.059029
     40 H16         6.1960   -1.2230    4.2030 hc        1 MOL      0.059029
     41 N4          6.8550   -0.6290    1.6450 n         1 MOL     -0.411642
     42 C14         7.3480   -1.3910    0.4930 c3        1 MOL      0.143855
     43 C15         8.4910   -0.7250   -0.3170 c         1 MOL      0.483178
     44 O9          8.9020    0.4190   -0.1160 o         1 MOL     -0.491239
     45 H17         7.5260   -0.5040    2.3900 hn        1 MOL      0.266374
     46 H18         6.5360   -1.3980   -0.2340 h1        1 MOL      0.045146
     47 H19         7.6860   -2.3890    0.7950 h1        1 MOL      0.045146
     48 N5          8.9250   -1.2930   -1.4460 n         1 MOL     -0.409135
     49 C16         8.4610   -2.5780   -2.0450 c3        1 MOL     -0.180042
     50 C17         7.0650   -2.3760   -2.5770 c         1 MOL      0.692782
     51 O10         6.8530   -1.6380   -3.5000 o         1 MOL     -0.505893
     52 C18         9.3600   -2.9870   -3.2020 c3        1 MOL     -0.360605
     53 C19        10.7940   -2.9050   -2.7580 c         1 MOL      0.665285
     54 N6         11.1420   -3.6280   -1.7520 n         1 MOL     -0.784217
     55 O11        11.5650   -2.0320   -3.0950 o         1 MOL     -0.539910
     56 H20         9.4490   -0.7340   -2.1110 hn        1 MOL      0.349577
     57 H21         8.5500   -3.3490   -1.2680 h1        1 MOL      0.084541
     58 H22         9.1390   -2.3520   -4.0640 hc        1 MOL      0.136795
     59 H23         9.0740   -3.9530   -3.6290 hc        1 MOL      0.136795
     60 H24        10.6180   -4.4000   -1.3610 hn        1 MOL      0.363462
     61 H25        11.9430   -3.3060   -1.2210 hn        1 MOL      0.363462
     62 N7          6.0140   -3.0220   -2.0270 n         1 MOL     -0.519596
     63 C20         4.6010   -2.5590   -2.2300 c3        1 MOL      0.004044
     64 C21         3.4940   -3.6740   -2.1280 c         1 MOL      0.607889
     65 O12         3.5680   -4.6810   -2.7750 o         1 MOL     -0.530441
     66 H26         6.2760   -3.6610   -1.2930 hn        1 MOL      0.254959
     67 H27         4.4490   -1.9960   -3.1520 h1        1 MOL      0.076933
     68 H28         4.4600   -1.8810   -1.3860 h1        1 MOL      0.076933
     69 N8          2.4180   -3.4440   -1.2720 n         1 MOL     -0.266374
     70 C22         1.2170   -4.3280   -1.2270 c3        1 MOL     -0.672215
     71 C23        -0.0030   -3.3970   -1.1190 c         1 MOL      0.954269
     72 O13         0.1120   -2.3130   -0.4500 o         1 MOL     -0.770502
     73 C24         1.1840   -5.2940   -0.0960 c3        1 MOL      0.646318
     74 C25         2.3220   -6.3120   -0.1860 c3        1 MOL     -0.614175
     75 O14         1.3240   -4.6810    1.1320 oh        1 MOL     -0.677491
     76 H29         2.5060   -2.6800   -0.6110 hn        1 MOL      0.202075
     77 H30         1.1090   -4.7990   -2.2030 h1        1 MOL      0.221485
     78 H31         0.2190   -5.8060    0.0000 h1        1 MOL     -0.017000
     79 H32         1.2090   -5.3690    1.7890 ho        1 MOL      0.462485
     80 H33         2.3240   -7.0190    0.6350 hc        1 MOL      0.149302
     81 H34         2.2010   -6.8230   -1.1390 hc        1 MOL      0.149302
     82 H35         3.3180   -5.8710   -0.3040 hc        1 MOL      0.149302
     83 N9         -1.0790   -3.7830   -1.7420 n         1 MOL     -0.516494
     84 C26        -2.3500   -3.1600   -1.4750 c3        1 MOL     -0.211847
     85 C27        -2.8470   -3.4990   -0.0650 c         1 MOL      0.528557
     86 O15        -2.8140   -4.6930    0.3330 o         1 MOL     -0.527994
     87 C28        -3.3510   -3.4590   -2.5960 c3        1 MOL      0.350574
     88 C29        -4.5810   -2.5700   -2.4330 c3        1 MOL      0.196487
     89 C30        -2.8360   -3.2500   -4.0270 c3        1 MOL     -0.474710
     90 C31        -5.5400   -2.3580   -3.5780 c3        1 MOL     -0.130896
     91 H36        -0.9420   -4.6780   -2.1860 hn        1 MOL      0.299241
     92 H37        -2.1100   -2.0990   -1.5240 h1        1 MOL      0.164985
     93 H38        -3.7670   -4.4510   -2.5060 hc        1 MOL     -0.047215
     94 H39        -4.1910   -1.6520   -1.9900 hc        1 MOL     -0.070765
     95 H40        -5.1830   -3.0230   -1.6350 hc        1 MOL     -0.070765
     96 H41        -2.5300   -2.2140   -4.2180 hc        1 MOL      0.106178
     97 H42        -1.9820   -3.9150   -4.1440 hc        1 MOL      0.106178
     98 H43        -3.6290   -3.4900   -4.7410 hc        1 MOL      0.106178
     99 H44        -6.5190   -2.0110   -3.2490 hc        1 MOL      0.016688
    100 H45        -5.1220   -1.5810   -4.2290 hc        1 MOL      0.016688
    101 H46        -5.7170   -3.2290   -4.2100 hc        1 MOL      0.016688
    102 N10        -3.4760   -2.5250    0.5960 n         1 MOL     -0.043304
    103 C32        -4.3320   -2.8220    1.7430 c3        1 MOL     -0.006587
    104 C33        -5.7670   -2.2770    1.7010 c         1 MOL      0.423585
    105 O16        -6.6560   -2.7560    2.4480 o         1 MOL     -0.545057
    106 C34        -3.6510   -2.3910    3.0420 c3        1 MOL      0.060594
    107 C35        -2.1910   -2.7260    3.0710 c         1 MOL      0.584582
    108 O17        -1.8120   -3.8880    3.3820 o         1 MOL     -0.685392
    109 O18        -1.2770   -1.9240    2.7390 o         1 MOL     -0.685392
    110 H47        -3.6180   -1.5950    0.2000 hn        1 MOL     -0.104417
    111 H48        -4.4810   -3.9050    1.7270 h1        1 MOL      0.076610
    112 H49        -4.1650   -2.8330    3.8890 hc        1 MOL     -0.025338
    113 H50        -3.8080   -1.3230    3.1600 hc        1 MOL     -0.025338
    114 N11        -6.1330   -1.2900    0.8270 n         1 MOL     -0.523575
    115 C36        -7.4950   -0.6690    0.7710 c3        1 MOL      0.509585
    116 C37        -7.2860    0.8230    0.4700 c         1 MOL      0.048498
    117 O19        -7.8720    1.3090   -0.5080 o         1 MOL     -0.379195
    118 C38        -8.2530   -1.4910   -0.3000 c3        1 MOL     -0.361314
    119 C39        -9.7470   -1.2300   -0.3980 ca        1 MOL      0.157941
    120 C40       -10.6820   -1.3560    0.6790 ca        1 MOL     -0.215932
    121 C41       -10.1410   -0.6490   -1.6390 ca        1 MOL     -0.215932
    122 C42       -12.0450   -0.9290    0.5160 ca        1 MOL     -0.082311
    123 C43       -11.4550   -0.2260   -1.7910 ca        1 MOL     -0.082311
    124 C44       -12.4180   -0.3780   -0.7480 ca        1 MOL     -0.169919
    125 H51        -5.3890   -0.8360    0.3180 hn        1 MOL      0.397534
    126 H52        -8.0230   -0.8250    1.7070 h1        1 MOL     -0.012320
    127 H53        -8.1460   -2.5410   -0.0210 hc        1 MOL      0.126206
    128 H54        -7.8130   -1.2670   -1.2670 hc        1 MOL      0.126206
    129 H55       -10.3710   -1.6040    1.6810 ha        1 MOL      0.141465
    130 H56        -9.4090   -0.5670   -2.4320 ha        1 MOL      0.141465
    131 H57       -12.7960   -0.9780    1.2880 ha        1 MOL      0.101083
    132 H58       -11.8270    0.0640   -2.7630 ha        1 MOL      0.101083
    133 H59       -13.4220   -0.0520   -0.9820 ha        1 MOL      0.106525
    134 N12        -6.5500    1.5910    1.3030 n         1 MOL      0.095683
    135 C45        -6.5330    3.0640    1.1850 c3        1 MOL     -0.133096
    136 C46        -5.8950    3.5570   -0.1200 c         1 MOL      0.191104
    137 O20        -6.1310    4.7250   -0.5280 o         1 MOL     -0.445888
    138 C47        -5.7430    3.6020    2.4020 c3        1 MOL      0.118187
    139 C48        -5.9070    2.4680    3.4760 c3        1 MOL     -0.270190
    140 C49        -6.0580    1.1670    2.6480 c3        1 MOL      0.015800
    141 H60        -7.5320    3.4510    1.3950 h1        1 MOL      0.121250
    142 H61        -4.6910    3.7460    2.1650 hc        1 MOL      0.015927
    143 H62        -6.1890    4.5480    2.6920 hc        1 MOL      0.015927
    144 H63        -5.0010    2.4160    4.0770 hc        1 MOL      0.079796
    145 H64        -6.8030    2.6740    4.0510 hc        1 MOL      0.079796
    146 H65        -5.0380    0.7790    2.5830 h1        1 MOL      0.047010
    147 H66        -6.7750    0.5300    3.1600 h1        1 MOL      0.047010
    148 N13        -5.2210    2.6750   -0.8590 n         1 MOL     -0.062716
    149 C50        -4.7660    2.9360   -2.2580 c3        1 MOL     -0.044106
    150 C51        -5.9430    3.5580   -3.1450 c         1 MOL      0.308189
    151 O21        -5.6950    4.6060   -3.7590 o         1 MOL     -0.503458
    152 C52        -4.2490    1.5810   -2.8180 c3        1 MOL     -0.004866
    153 C53        -2.8390    1.1540   -2.2580 c3        1 MOL     -0.285051
    154 C54        -2.9960    0.5320   -0.8730 c         1 MOL      0.593787
    155 O22        -1.9740    0.1510   -0.2790 o         1 MOL     -0.699701
    156 O23        -4.0990    0.2040   -0.3680 o         1 MOL     -0.699701
    157 H67        -5.1080    1.7230   -0.5500 hn        1 MOL      0.240972
    158 H68        -3.9420    3.6450   -2.1510 h1        1 MOL      0.099932
    159 H69        -4.0600    1.8360   -3.8570 hc        1 MOL      0.021458
    160 H70        -5.0210    0.8150   -2.7330 hc        1 MOL      0.021458
    161 H71        -2.1020    1.9480   -2.4230 hc        1 MOL      0.128745
    162 H72        -2.4340    0.4620   -3.0020 hc        1 MOL      0.128745
    163 N14        -7.1640    3.0950   -3.0610 n         1 MOL     -0.119530
    164 C55        -8.3240    3.6590   -3.6860 c3        1 MOL     -0.116114
    165 H73        -8.9750    4.0880   -2.9230 h1        1 MOL      0.066199
    166 H74        -8.0190    4.4380   -4.3830 h1        1 MOL      0.066199
    167 H75        -8.8620    2.8780   -4.2260 h1        1 MOL      0.066199
    168 H76        -7.3250    2.3210   -2.4250 hn        1 MOL      0.164279
    169 Ca1         0.0040   -0.4200    1.2120 Ca        1 MOL      1.763784
    170 O24         2.2410    0.1840   -0.2590 oh        1 MOL     -0.812695
    171 H77         2.4640    0.6720   -1.0480 ho        1 MOL      0.404441
    172 H78         3.0950   -0.0900    0.1020 ho        1 MOL      0.404441
    173 O25         2.0510   -2.0360    1.7780 oh        1 MOL     -0.812695
    174 H79         1.9650   -2.9440    1.4750 ho        1 MOL      0.404441
    175 H80         2.6410   -2.0860    2.5320 ho        1 MOL      0.404441
    176 O26        -2.3080    0.7970    2.5730 oh        1 MOL     -0.812695
    177 H81        -2.8950    0.7160    1.8160 ho        1 MOL      0.404441
    178 H82        -2.8630    0.6150    3.3310 ho        1 MOL      0.404441
    179 O27         0.2650    2.2160    1.3380 oh        1 MOL     -0.812695
    180 H83         1.0110    2.6820    1.7100 ho        1 MOL      0.404441
    181 H84        -0.5040    2.6460    1.7130 ho        1 MOL      0.404441
    182 O28         0.9100    0.2740    3.7660 oh        1 MOL     -0.812695
    183 H85         1.3470   -0.5120    4.0990 ho        1 MOL      0.404441
    184 H86         0.5880    0.7170    4.5460 ho        1 MOL      0.404441
@<TRIPOS>BOND
     1    1    2 1   
     2    1    4 1   
     3    1    5 1   
     4    1    6 1   
     5    2    3 2   
     6    2    7 1   
     7    7    8 1   
     8    7   15 1   
     9    8    9 1   
    10    8   11 1   
    11    8   16 1   
    12    9   10 2   
    13    9   19 1   
    14   11   12 1   
    15   11   17 1   
    16   11   18 1   
    17   12   13 1   
    18   12   14 1   
    19   19   20 1   
    20   19   24 1   
    21   20   21 1   
    22   20   23 1   
    23   20   25 1   
    24   21   22 2   
    25   21   29 1   
    26   23   26 1   
    27   23   27 1   
    28   23   28 1   
    29   29   30 1   
    30   29   37 1   
    31   30   31 1   
    32   30   33 1   
    33   30   38 1   
    34   31   32 2   
    35   31   41 1   
    36   33   34 1   
    37   33   39 1   
    38   33   40 1   
    39   34   35 1   
    40   34   36 1   
    41   41   42 1   
    42   41   45 1   
    43   42   43 1   
    44   42   46 1   
    45   42   47 1   
    46   43   44 2   
    47   43   48 1   
    48   48   49 1   
    49   48   56 1   
    50   49   50 1   
    51   49   52 1   
    52   49   57 1   
    53   50   51 2   
    54   50   62 1   
    55   52   53 1   
    56   52   58 1   
    57   52   59 1   
    58   53   54 1   
    59   53   55 2   
    60   54   60 1   
    61   54   61 1   
    62   62   63 1   
    63   62   66 1   
    64   63   64 1   
    65   63   67 1   
    66   63   68 1   
    67   64   65 2   
    68   64   69 1   
    69   69   70 1   
    70   69   76 1   
    71   70   71 1   
    72   70   73 1   
    73   70   77 1   
    74   71   72 2   
    75   71   83 1   
    76   73   74 1   
    77   73   75 1   
    78   73   78 1   
    79   74   80 1   
    80   74   81 1   
    81   74   82 1   
    82   75   79 1   
    83   83   84 1   
    84   83   91 1   
    85   84   85 1   
    86   84   87 1   
    87   84   92 1   
    88   85   86 2   
    89   85  102 1   
    90   87   88 1   
    91   87   89 1   
    92   87   93 1   
    93   88   90 1   
    94   88   94 1   
    95   88   95 1   
    96   89   96 1   
    97   89   97 1   
    98   89   98 1   
    99   90   99 1   
   100   90  100 1   
   101   90  101 1   
   102  102  103 1   
   103  102  110 1   
   104  103  104 1   
   105  103  106 1   
   106  103  111 1   
   107  104  105 2   
   108  104  114 1   
   109  106  107 1   
   110  106  112 1   
   111  106  113 1   
   112  107  108 1   
   113  107  109 1   
   114  114  115 1   
   115  114  125 1   
   116  115  116 1   
   117  115  118 1   
   118  115  126 1   
   119  116  117 2   
   120  116  134 1   
   121  118  119 1   
   122  118  127 1   
   123  118  128 1   
   124  119  120 ar  
   125  119  121 ar  
   126  120  122 ar  
   127  120  129 1   
   128  121  123 ar  
   129  121  130 1   
   130  122  124 ar  
   131  122  131 1   
   132  123  124 ar  
   133  123  132 1   
   134  124  133 1   
   135  134  135 1   
   136  134  140 1   
   137  135  136 1   
   138  135  138 1   
   139  135  141 1   
   140  136  137 2   
   141  136  148 1   
   142  138  139 1   
   143  138  142 1   
   144  138  143 1   
   145  139  140 1   
   146  139  144 1   
   147  139  145 1   
   148  140  146 1   
   149  140  147 1   
   150  148  149 1   
   151  148  157 1   
   152  149  150 1   
   153  149  152 1   
   154  149  158 1   
   155  150  151 2   
   156  150  163 1   
   157  152  153 1   
   158  152  159 1   
   159  152  160 1   
   160  153  154 1   
   161  153  161 1   
   162  153  162 1   
   163  154  155 1   
   164  154  156 1   
   165  163  164 1   
   166  163  168 1   
   167  164  165 1   
   168  164  166 1   
   169  164  167 1   
   170  170  171 1   
   171  170  172 1   
   172  173  174 1   
   173  173  175 1   
   174  176  177 1   
   175  176  178 1   
   176  179  180 1   
   177  179  181 1   
   178  182  183 1   
   179  182  184 1   
@<TRIPOS>SUBSTRUCTURE
     1 MOL         1 TEMP              0 ****  ****    0 ROOT
