@<TRIPOS>MOLECULE
MOL
  181   177     1     0     0
SMALL
resp


@<TRIPOS>ATOM
      1 C1         -2.4260    0.7450    3.8380 c3        1 MOL     -0.270093
      2 C2         -3.3390   -0.4280    3.4710 c         1 MOL      0.688426
      3 O1         -2.9350   -1.2900    2.6740 o         1 MOL     -0.578019
      4 H1         -3.0220    1.5450    4.2770 hc        1 MOL      0.059531
      5 H2         -1.6780    0.4130    4.5580 hc        1 MOL      0.059531
      6 H3         -1.9300    1.1140    2.9410 hc        1 MOL      0.059531
      7 N1         -4.4860   -0.5440    4.0920 n         1 MOL     -0.642165
      8 C3         -5.4940   -1.5620    3.8540 c3        1 MOL      0.281271
      9 C4         -5.9220   -1.4910    2.3460 c         1 MOL      0.578873
     10 O2         -5.9120   -2.4590    1.6110 o         1 MOL     -0.642832
     11 C5         -6.6530   -1.4970    4.8680 c3        1 MOL     -0.420901
     12 C6         -7.4500   -0.1860    5.0250 c         1 MOL      0.729246
     13 O3         -6.9240    0.8380    4.5630 o         1 MOL     -0.710539
     14 O4         -8.5210   -0.1820    5.6810 o         1 MOL     -0.710539
     15 H4         -4.6830    0.0160    4.9240 hn        1 MOL      0.345162
     16 H5         -5.1300   -2.5820    3.9340 h1        1 MOL     -0.002299
     17 H6         -6.2680   -1.6650    5.8730 hc        1 MOL      0.085754
     18 H7         -7.3250   -2.3040    4.5770 hc        1 MOL      0.085754
     19 N2         -6.3410   -0.3330    1.9260 n         1 MOL     -0.339298
     20 C7         -6.5240    0.1180    0.5140 c3        1 MOL      0.087218
     21 C8         -5.4480   -0.3100   -0.4690 c         1 MOL      0.494458
     22 O5         -4.4210    0.3440   -0.5160 o         1 MOL     -0.596350
     23 C9         -7.9490   -0.2750    0.1080 c3        1 MOL     -0.426402
     24 H8         -6.4590    0.4460    2.5440 hn        1 MOL      0.255531
     25 H9         -6.3980    1.1880    0.6860 h1        1 MOL      0.085158
     26 H10        -8.0790   -1.3570    0.1360 hc        1 MOL      0.110173
     27 H11        -8.6600    0.2350    0.7470 hc        1 MOL      0.110173
     28 H12        -8.1490   -0.0490   -0.9380 hc        1 MOL      0.110173
     29 N3         -5.6420   -1.3570   -1.2440 n         1 MOL     -0.215991
     30 C10        -4.7400   -1.9150   -2.2160 c3        1 MOL     -0.031006
     31 C11        -4.7850   -3.4290   -2.3310 c         1 MOL      0.598302
     32 O6         -4.9250   -4.0170   -3.3770 o         1 MOL     -0.514937
     33 C12        -5.0110   -1.2950   -3.5590 c3        1 MOL     -0.303168
     34 C13        -4.9620    0.2640   -3.5020 c         1 MOL      0.832726
     35 O7         -3.9230    0.9140   -3.2990 o         1 MOL     -0.753653
     36 O8         -6.0290    0.8250   -3.6480 o         1 MOL     -0.753653
     37 H13        -6.5250   -1.8280   -1.1080 hn        1 MOL      0.214690
     38 H14        -3.7880   -1.5320   -1.8700 h1        1 MOL      0.108140
     39 H15        -5.9370   -1.5690   -4.0720 hc        1 MOL      0.063263
     40 H16        -4.1940   -1.5410   -4.2390 hc        1 MOL      0.063263
     41 N4         -4.6470   -4.0970   -1.1950 n         1 MOL     -0.441160
     42 C14        -4.3230   -5.5700   -1.1740 c3        1 MOL     -0.090583
     43 C15        -2.8820   -5.9370   -1.6900 c         1 MOL      0.542560
     44 O9         -2.6950   -7.0120   -2.1890 o         1 MOL     -0.542987
     45 H17        -4.5500   -3.6160   -0.3220 hn        1 MOL      0.310417
     46 H18        -5.0470   -6.1490   -1.7540 h1        1 MOL      0.076628
     47 H19        -4.4370   -5.9230   -0.1530 h1        1 MOL      0.076628
     48 N5         -2.0210   -4.9390   -1.6090 n         1 MOL     -0.274120
     49 C16        -0.6750   -4.8560   -2.1920 c3        1 MOL     -0.008918
     50 C17         0.4190   -5.6860   -1.5380 c         1 MOL      0.524850
     51 O10         0.2140   -6.0460   -0.3810 o         1 MOL     -0.546040
     52 C18        -0.2350   -3.3550   -2.2500 c3        1 MOL     -0.209114
     53 C19        -1.1990   -2.5450   -3.1490 c         1 MOL      0.708662
     54 N6         -1.4690   -1.2990   -2.9300 n         1 MOL     -0.822651
     55 O11        -1.5110   -3.0120   -4.2300 o         1 MOL     -0.604931
     56 H20        -2.3080   -4.1140   -1.0970 hn        1 MOL      0.213786
     57 H21        -0.6920   -5.2040   -3.2290 h1        1 MOL      0.036283
     58 H22         0.7690   -3.3560   -2.6790 hc        1 MOL      0.086204
     59 H23        -0.1680   -2.8110   -1.3080 hc        1 MOL      0.086204
     60 H24        -1.4000   -0.8850   -2.0100 hn        1 MOL      0.359682
     61 H25        -1.8430   -0.8750   -3.7600 hn        1 MOL      0.359682
     62 N7          1.4940   -5.9730   -2.2090 n         1 MOL     -0.317083
     63 C20         2.6920   -6.7690   -1.7510 c3        1 MOL     -0.237262
     64 C21         3.8210   -5.9700   -1.1410 c         1 MOL      0.602302
     65 O12         4.1430   -4.9590   -1.7720 o         1 MOL     -0.524815
     66 H26         1.5650   -5.7260   -3.1930 hn        1 MOL      0.283589
     67 H27         3.1190   -7.2730   -2.6320 h1        1 MOL      0.110008
     68 H28         2.3540   -7.5260   -1.0360 h1        1 MOL      0.110008
     69 N8          4.4720   -6.2840   -0.0370 n         1 MOL     -0.299569
     70 C22         5.7650   -5.7190    0.4260 c3        1 MOL     -0.333965
     71 C23         5.6710   -4.3080    0.9440 c         1 MOL      0.539967
     72 O13         6.7380   -3.6570    1.0090 o         1 MOL     -0.560309
     73 C24         6.5030   -6.6710    1.4230 c3        1 MOL      0.548087
     74 C25         6.1500   -6.6790    2.9290 c3        1 MOL     -0.348562
     75 O14         6.3340   -7.9670    1.0250 oh        1 MOL     -0.642154
     76 H29         4.2970   -7.2210    0.2910 hn        1 MOL      0.200894
     77 H30         6.3960   -5.6640   -0.4680 h1        1 MOL      0.163308
     78 H31         7.5780   -6.5190    1.3200 h1        1 MOL      0.017928
     79 H32         5.5340   -8.2600    1.4680 ho        1 MOL      0.386939
     80 H33         5.0810   -6.5450    3.0470 hc        1 MOL      0.080976
     81 H34         6.4200   -7.5850    3.4670 hc        1 MOL      0.080976
     82 H35         6.7220   -5.8290    3.3070 hc        1 MOL      0.080976
     83 N9          4.4620   -3.8520    1.2910 n         1 MOL     -0.245393
     84 C26         4.2190   -2.3870    1.4540 c3        1 MOL     -0.310425
     85 C27         3.0440   -1.9520    0.6210 c         1 MOL      0.611949
     86 O15         2.1610   -2.7310    0.1620 o         1 MOL     -0.450262
     87 C28         4.2120   -1.8620    2.9630 c3        1 MOL     -0.016917
     88 C29         3.1140   -2.5240    3.8580 c3        1 MOL      0.080921
     89 C30         5.6000   -2.1830    3.5670 c3        1 MOL     -0.292688
     90 C31         2.6780   -1.7390    5.1240 c3        1 MOL     -0.283097
     91 H36         3.6680   -4.4710    1.1680 hn        1 MOL      0.209347
     92 H37         5.0420   -1.8220    1.0270 h1        1 MOL      0.228269
     93 H38         3.9850   -0.7940    3.0010 hc        1 MOL      0.077582
     94 H39         3.3710   -3.5450    4.1430 hc        1 MOL      0.040128
     95 H40         2.1490   -2.5310    3.3370 hc        1 MOL      0.040128
     96 H41         5.8180   -1.6060    4.4760 hc        1 MOL      0.078492
     97 H42         5.6740   -3.1970    3.9550 hc        1 MOL      0.078492
     98 H43         6.3350   -1.9520    2.7900 hc        1 MOL      0.078492
     99 H44         2.4260   -0.7260    4.8180 hc        1 MOL      0.070634
    100 H45         1.8300   -2.3150    5.4900 hc        1 MOL      0.070634
    101 H46         3.5460   -1.5990    5.7730 hc        1 MOL      0.070634
    102 N10         2.9970   -0.6310    0.2890 n         1 MOL     -0.585401
    103 C32         1.8710   -0.0440   -0.4490 c3        1 MOL      0.029767
    104 C33         2.2890    1.1500   -1.3440 c         1 MOL      0.476903
    105 O16         1.7040    1.3290   -2.3670 o         1 MOL     -0.488989
    106 C34         0.7070    0.3350    0.5490 c3        1 MOL     -0.146043
    107 C35        -0.4630    0.9900   -0.1300 c         1 MOL      0.598400
    108 O17        -1.3950    0.2450   -0.5610 o         1 MOL     -0.686627
    109 O18        -0.6010    2.1840   -0.3580 o         1 MOL     -0.686627
    110 H47         3.8020   -0.1050    0.5910 hn        1 MOL      0.263575
    111 H48         1.5220   -0.7650   -1.1860 h1        1 MOL      0.116734
    112 H49         1.2420    0.9840    1.2520 hc        1 MOL      0.087682
    113 H50         0.3520   -0.5170    1.1220 hc        1 MOL      0.087682
    114 N11         3.4170    1.8390   -1.0760 n         1 MOL     -0.307188
    115 C36         4.0090    2.9240   -1.8660 c3        1 MOL      0.174904
    116 C37         3.9780    4.2320   -1.0560 c         1 MOL      0.172934
    117 O19         4.2660    4.1640    0.1460 o         1 MOL     -0.372051
    118 C38         5.4390    2.6620   -2.4210 c3        1 MOL     -0.279414
    119 C39         6.3600    1.9970   -1.4820 ca        1 MOL      0.167679
    120 C40         7.0440    2.7770   -0.5300 ca        1 MOL     -0.221325
    121 C41         6.4390    0.6130   -1.4700 ca        1 MOL     -0.221325
    122 C42         7.8620    2.1110    0.5150 ca        1 MOL     -0.100707
    123 C43         7.1260   -0.0010   -0.4500 ca        1 MOL     -0.100707
    124 C44         7.8420    0.7280    0.5430 ca        1 MOL     -0.125250
    125 H51         3.8200    1.6900   -0.1610 hn        1 MOL      0.289609
    126 H52         3.4020    2.9400   -2.7720 h1        1 MOL      0.047476
    127 H53         5.8570    3.6170   -2.7390 hc        1 MOL      0.090517
    128 H54         5.3300    2.0340   -3.3160 hc        1 MOL      0.090517
    129 H55         6.9130    3.8430   -0.6690 ha        1 MOL      0.142283
    130 H56         5.8920   -0.0090   -2.1630 ha        1 MOL      0.142283
    131 H57         8.4240    2.6960    1.2280 ha        1 MOL      0.117602
    132 H58         7.2010   -1.0810   -0.3930 ha        1 MOL      0.117602
    133 H59         8.5030    0.2100    1.2330 ha        1 MOL      0.111514
    134 N12         3.7130    5.3810   -1.6400 n         1 MOL      0.017871
    135 C45         3.6940    6.7150   -1.0690 c3        1 MOL      0.031124
    136 C46         2.9850    6.8130    0.2840 c         1 MOL      0.304746
    137 O20         3.3880    7.4610    1.2420 o         1 MOL     -0.502802
    138 C47         3.0780    7.6440   -2.1310 c3        1 MOL      0.039079
    139 C48         3.7220    7.0810   -3.3650 c3        1 MOL     -0.007226
    140 C49         3.6820    5.5920   -3.1190 c3        1 MOL     -0.206173
    141 H60         4.7550    6.9270   -1.0010 h1        1 MOL      0.059433
    142 H61         1.9920    7.6510   -2.0770 hc        1 MOL      0.016841
    143 H62         3.4080    8.6720   -1.9620 hc        1 MOL      0.016841
    144 H63         3.3240    7.3750   -4.3270 hc        1 MOL      0.030597
    145 H64         4.7600    7.4030   -3.3460 hc        1 MOL      0.030597
    146 H65         2.8990    5.0420   -3.6410 h1        1 MOL      0.100660
    147 H66         4.6000    5.1290   -3.4780 h1        1 MOL      0.100660
    148 N13         1.8060    6.1480    0.3950 n         1 MOL     -0.209745
    149 C50         1.0550    6.0740    1.6840 c3        1 MOL     -0.062432
    150 C51         1.7590    5.3370    2.8030 c         1 MOL      0.436351
    151 O21         1.3280    5.4470    3.9380 o         1 MOL     -0.531984
    152 C52        -0.3210    5.5290    1.4080 c3        1 MOL      0.105738
    153 C53        -1.1650    6.3250    0.3940 c3        1 MOL     -0.060384
    154 C54        -2.4940    5.6470    0.1280 c         1 MOL      0.633738
    155 O22        -2.6690    4.8810   -0.8630 o         1 MOL     -0.684033
    156 O23        -3.3100    5.8400    1.0270 o         1 MOL     -0.684033
    157 H67         1.4630    5.6470   -0.4080 hn        1 MOL      0.230139
    158 H68         0.8230    7.0980    1.9900 h1        1 MOL      0.100270
    159 H69        -0.7070    5.5270    2.4220 hc        1 MOL     -0.006723
    160 H70        -0.1950    4.5030    1.0570 hc        1 MOL     -0.006723
    161 H71        -0.6160    6.4970   -0.5320 hc        1 MOL     -0.017390
    162 H72        -1.3320    7.3120    0.8230 hc        1 MOL     -0.017390
    163 N14         2.8580    4.6040    2.4970 n         1 MOL     -0.023842
    164 C55         3.6150    3.9770    3.5600 c3        1 MOL     -0.360563
    165 H73         4.3950    3.3500    3.1280 h1        1 MOL      0.121071
    166 H74         4.0700    4.7450    4.1840 h1        1 MOL      0.121071
    167 H75         2.9490    3.3620    4.1660 h1        1 MOL      0.121071
    168 H76         3.1450    4.4760    1.5460 hn        1 MOL      0.028048
    169 Ca1        -3.0210    2.3810   -1.3060 Ca        1 MOL      1.747957
    170 O24        -3.8720    3.0100    1.1400 oh        1 MOL     -0.820128
    171 H77        -4.2650    2.7640    1.9810 ho        1 MOL      0.393663
    172 H78        -3.7300    3.9550    1.2010 ho        1 MOL      0.393663
    173 O25        -4.1160    3.8720   -3.6110 oh        1 MOL     -0.820128
    174 H79        -4.7250    3.3770   -4.1650 ho        1 MOL      0.393663
    175 H80        -4.3430    4.7880   -3.7770 ho        1 MOL      0.393663
    176 O26        -5.7500    2.9050   -1.3020 oh        1 MOL     -0.820128
    177 H81        -6.4610    3.0110   -0.6590 ho        1 MOL      0.393663
    178 H82        -6.1490    2.4230   -2.0270 ho        1 MOL      0.393663
    179 O27        -1.1810    2.8070   -3.2350 oh        1 MOL     -0.820128
    180 H83        -1.2110    2.9330   -4.1850 ho        1 MOL      0.393663
    181 H84        -0.5800    2.0660   -3.1110 ho        1 MOL      0.393663
@<TRIPOS>BOND
     1    1    2 1   
     2    1    4 1   
     3    1    5 1   
     4    1    6 1   
     5    2    3 2   
     6    2    7 1   
     7    7    8 1   
     8    7   15 1   
     9    8    9 1   
    10    8   11 1   
    11    8   16 1   
    12    9   10 2   
    13    9   19 1   
    14   11   12 1   
    15   11   17 1   
    16   11   18 1   
    17   12   13 1   
    18   12   14 1   
    19   19   20 1   
    20   19   24 1   
    21   20   21 1   
    22   20   23 1   
    23   20   25 1   
    24   21   22 2   
    25   21   29 1   
    26   23   26 1   
    27   23   27 1   
    28   23   28 1   
    29   29   30 1   
    30   29   37 1   
    31   30   31 1   
    32   30   33 1   
    33   30   38 1   
    34   31   32 2   
    35   31   41 1   
    36   33   34 1   
    37   33   39 1   
    38   33   40 1   
    39   34   35 1   
    40   34   36 1   
    41   41   42 1   
    42   41   45 1   
    43   42   43 1   
    44   42   46 1   
    45   42   47 1   
    46   43   44 2   
    47   43   48 1   
    48   48   49 1   
    49   48   56 1   
    50   49   50 1   
    51   49   52 1   
    52   49   57 1   
    53   50   51 2   
    54   50   62 1   
    55   52   53 1   
    56   52   58 1   
    57   52   59 1   
    58   53   54 1   
    59   53   55 2   
    60   54   60 1   
    61   54   61 1   
    62   62   63 1   
    63   62   66 1   
    64   63   64 1   
    65   63   67 1   
    66   63   68 1   
    67   64   65 2   
    68   64   69 1   
    69   69   70 1   
    70   69   76 1   
    71   70   71 1   
    72   70   73 1   
    73   70   77 1   
    74   71   72 2   
    75   71   83 1   
    76   73   74 1   
    77   73   75 1   
    78   73   78 1   
    79   74   80 1   
    80   74   81 1   
    81   74   82 1   
    82   75   79 1   
    83   83   84 1   
    84   83   91 1   
    85   84   85 1   
    86   84   87 1   
    87   84   92 1   
    88   85   86 2   
    89   85  102 1   
    90   87   88 1   
    91   87   89 1   
    92   87   93 1   
    93   88   90 1   
    94   88   94 1   
    95   88   95 1   
    96   89   96 1   
    97   89   97 1   
    98   89   98 1   
    99   90   99 1   
   100   90  100 1   
   101   90  101 1   
   102  102  103 1   
   103  102  110 1   
   104  103  104 1   
   105  103  106 1   
   106  103  111 1   
   107  104  105 2   
   108  104  114 1   
   109  106  107 1   
   110  106  112 1   
   111  106  113 1   
   112  107  108 1   
   113  107  109 1   
   114  114  115 1   
   115  114  125 1   
   116  115  116 1   
   117  115  118 1   
   118  115  126 1   
   119  116  117 2   
   120  116  134 1   
   121  118  119 1   
   122  118  127 1   
   123  118  128 1   
   124  119  120 ar  
   125  119  121 ar  
   126  120  122 ar  
   127  120  129 1   
   128  121  123 ar  
   129  121  130 1   
   130  122  124 ar  
   131  122  131 1   
   132  123  124 ar  
   133  123  132 1   
   134  124  133 1   
   135  134  135 1   
   136  134  140 1   
   137  135  136 1   
   138  135  138 1   
   139  135  141 1   
   140  136  137 2   
   141  136  148 1   
   142  138  139 1   
   143  138  142 1   
   144  138  143 1   
   145  139  140 1   
   146  139  144 1   
   147  139  145 1   
   148  140  146 1   
   149  140  147 1   
   150  148  149 1   
   151  148  157 1   
   152  149  150 1   
   153  149  152 1   
   154  149  158 1   
   155  150  151 2   
   156  150  163 1   
   157  152  153 1   
   158  152  159 1   
   159  152  160 1   
   160  153  154 1   
   161  153  161 1   
   162  153  162 1   
   163  154  155 1   
   164  154  156 1   
   165  163  164 1   
   166  163  168 1   
   167  164  165 1   
   168  164  166 1   
   169  164  167 1   
   170  170  171 1   
   171  170  172 1   
   172  173  174 1   
   173  173  175 1   
   174  176  177 1   
   175  176  178 1   
   176  179  180 1   
   177  179  181 1   
@<TRIPOS>SUBSTRUCTURE
     1 MOL         1 TEMP              0 ****  ****    0 ROOT
