@<TRIPOS>MOLECULE
MOL
  189   185     1     0     0
SMALL
resp


@<TRIPOS>ATOM
      1 C1          4.2550    3.9850   -3.6840 c3        1 MOL     -0.501614
      2 C2          4.9790    2.9800   -2.6860 c         1 MOL      0.850831
      3 O1          4.5500    2.7300   -1.5480 o         1 MOL     -0.712439
      4 H1          3.2080    4.0870   -3.4000 hc        1 MOL      0.134548
      5 H2          4.7410    4.9600   -3.6350 hc        1 MOL      0.134548
      6 H3          4.3190    3.5980   -4.7000 hc        1 MOL      0.134548
      7 N1          6.1450    2.4030   -2.9920 n         1 MOL     -0.687009
      8 C3          7.0730    1.4950   -2.2490 c3        1 MOL      0.380608
      9 C4          6.2530    0.1920   -1.8700 c         1 MOL      0.373903
     10 O2          5.6660    0.1070   -0.7960 o         1 MOL     -0.582261
     11 C5          7.8990    2.1350   -1.1520 c3        1 MOL     -0.218987
     12 C6          7.3580    3.2910   -0.4900 c         1 MOL      0.832952
     13 O3          6.6680    3.0900    0.5100 o         1 MOL     -0.759791
     14 O4          7.6310    4.4160   -0.9500 o         1 MOL     -0.759791
     15 H4          6.4840    2.6330   -3.9120 hn        1 MOL      0.281361
     16 H5          7.8080    1.1340   -2.9780 h1        1 MOL     -0.008323
     17 H6          8.8410    2.4070   -1.6480 hc        1 MOL      0.021343
     18 H7          8.1680    1.4420   -0.3520 hc        1 MOL      0.021343
     19 N2          6.0930   -0.7020   -2.8240 n         1 MOL     -0.411127
     20 C7          5.2530   -1.9450   -2.8600 c3        1 MOL      0.291561
     21 C8          5.8120   -3.1420   -2.0350 c         1 MOL      0.327725
     22 O5          6.3930   -4.0300   -2.6430 o         1 MOL     -0.560605
     23 C9          3.7570   -1.6630   -2.6310 c3        1 MOL     -0.040429
     24 C10         2.8820   -2.9340   -2.6900 c3        1 MOL     -0.116638
     25 C11         3.1760   -0.5330   -3.4330 c3        1 MOL      0.048757
     26 C12         3.0270   -3.6580   -4.0220 c3        1 MOL     -0.043669
     27 H8          6.6380   -0.5940   -3.6720 hn        1 MOL      0.241860
     28 H9          5.3210   -2.2190   -3.9130 h1        1 MOL     -0.025852
     29 H10         3.7340   -1.2090   -1.6370 hc        1 MOL      0.100025
     30 H11         1.8430   -2.6350   -2.5760 hc        1 MOL      0.039574
     31 H12         3.0150   -3.5790   -1.8200 hc        1 MOL      0.039574
     32 H13         2.4030   -0.1500   -2.7790 hc        1 MOL     -0.040125
     33 H14         4.0000    0.1830   -3.5330 hc        1 MOL     -0.040125
     34 H15         2.8810   -0.6420   -4.4820 hc        1 MOL     -0.040125
     35 H16         2.3930   -4.5330   -3.9240 hc        1 MOL      0.002657
     36 H17         2.5980   -3.1750   -4.9050 hc        1 MOL      0.002657
     37 H18         4.0250   -4.0870   -4.1600 hc        1 MOL      0.002657
     38 N3          5.7370   -3.1040   -0.7230 n         1 MOL     -0.092404
     39 C13         6.4780   -4.0140    0.2160 c3        1 MOL     -0.017864
     40 C14         5.6750   -5.1740    0.7530 c         1 MOL      0.540941
     41 O6          6.2180   -6.3200    0.8090 o         1 MOL     -0.592239
     42 C15         7.0370   -3.1750    1.3410 c3        1 MOL     -0.105793
     43 C16         7.9000   -1.9090    0.9610 c         1 MOL      0.692090
     44 O7          8.8320   -2.1210    0.1730 o         1 MOL     -0.697752
     45 O8          7.6300   -0.7630    1.4180 o         1 MOL     -0.697752
     46 H19         5.1390   -2.3690   -0.3780 hn        1 MOL      0.285425
     47 H20         7.4010   -4.3600   -0.2600 h1        1 MOL      0.085070
     48 H21         7.7680   -3.6950    1.9670 hc        1 MOL      0.024404
     49 H22         6.2250   -2.8340    1.9900 hc        1 MOL      0.024404
     50 N4          4.4090   -5.1150    1.1090 n         1 MOL     -0.582101
     51 C17         3.5940   -3.9530    1.4860 c3        1 MOL      0.099863
     52 C18         3.9510   -3.4310    2.8930 c         1 MOL      0.482606
     53 O9          4.7290   -4.0810    3.5720 o         1 MOL     -0.522570
     54 H23         4.0530   -6.0110    1.4160 hn        1 MOL      0.320728
     55 H24         2.5440   -4.2370    1.3910 h1        1 MOL      0.054635
     56 H25         3.7810   -3.1430    0.7790 h1        1 MOL      0.054635
     57 N5          3.3140   -2.3270    3.3720 n         1 MOL     -0.416521
     58 C19         2.0810   -1.7560    2.8670 c3        1 MOL      0.182571
     59 C20         2.1990   -1.1240    1.3940 c         1 MOL      0.025033
     60 O10         3.2010   -0.7540    0.8890 o         1 MOL     -0.476944
     61 C21         1.6610   -0.6410    3.8830 c3        1 MOL     -0.295190
     62 C22         2.7030    0.5160    4.0600 c         1 MOL      0.817942
     63 O11         3.3890    0.4790    5.1130 o         1 MOL     -0.706396
     64 O12         2.7170    1.3910    3.1710 o         1 MOL     -0.706396
     65 H26         3.7280   -1.9640    4.2150 hn        1 MOL      0.274426
     66 H27         1.3860   -2.5900    2.8400 h1        1 MOL      0.001927
     67 H28         1.4570   -1.1250    4.8440 hc        1 MOL      0.067025
     68 H29         0.6990   -0.2170    3.6010 hc        1 MOL      0.067025
     69 N6          1.0660   -0.9780    0.6510 n         1 MOL     -0.070189
     70 C23        -0.3120   -1.2580    0.9670 c3        1 MOL      0.058136
     71 C24        -0.7050   -2.5940    0.4480 c         1 MOL      0.597268
     72 O13        -0.0570   -3.1140   -0.4430 o         1 MOL     -0.567679
     73 H30         1.2150   -0.5790   -0.2650 hn        1 MOL      0.192550
     74 H31        -0.9420   -0.4880    0.5150 h1        1 MOL      0.017067
     75 H32        -0.4830   -1.3130    2.0450 h1        1 MOL      0.017067
     76 N7         -1.8950   -3.0880    0.7810 n         1 MOL     -0.532159
     77 C25        -2.4160   -4.3860    0.2280 c3        1 MOL      0.093912
     78 C26        -3.1250   -4.2200   -1.0710 c         1 MOL      0.454935
     79 O14        -3.4850   -5.1110   -1.7580 o         1 MOL     -0.558988
     80 C27        -3.1750   -5.2400    1.2950 c3        1 MOL     -0.251078
     81 C28        -4.3250   -4.5790    2.0060 c3        1 MOL     -0.135102
     82 C29        -5.5180   -4.2960    1.1150 c         1 MOL      0.542711
     83 N8         -6.2590   -5.3560    0.7720 n         1 MOL     -0.750928
     84 O15        -5.8240   -3.1840    0.6570 o         1 MOL     -0.574021
     85 H33        -2.4600   -2.4900    1.3620 hn        1 MOL      0.318523
     86 H34        -1.6070   -5.0560   -0.0560 h1        1 MOL      0.103941
     87 H35        -2.4810   -5.5190    2.0800 hc        1 MOL      0.104967
     88 H36        -3.5770   -6.1080    0.7820 hc        1 MOL      0.104967
     89 H37        -4.0120   -3.5960    2.3730 hc        1 MOL      0.074129
     90 H38        -4.6070   -5.2540    2.8190 hc        1 MOL      0.074129
     91 H39        -6.0570   -6.2860    1.0960 hn        1 MOL      0.371479
     92 H40        -6.8950   -5.1420    0.0250 hn        1 MOL      0.371479
     93 N9         -3.4030   -2.9720   -1.4330 n         1 MOL     -0.115981
     94 C30        -3.9050   -2.5400   -2.8060 c3        1 MOL     -0.034227
     95 C31        -5.2440   -1.7780   -2.8210 c         1 MOL      0.295743
     96 O16        -5.7080   -1.4260   -3.9350 o         1 MOL     -0.531892
     97 C32        -2.8550   -1.7150   -3.6210 c3        1 MOL      0.207024
     98 C33        -1.6310   -2.5560   -3.9120 c3        1 MOL     -0.222241
     99 C34        -2.3910   -0.4280   -2.9770 c3        1 MOL     -0.222241
    100 H41        -3.1260   -2.2800   -0.7500 hn        1 MOL      0.128804
    101 H42        -4.1950   -3.3640   -3.4460 h1        1 MOL      0.113657
    102 H43        -3.2790   -1.5970   -4.6220 hc        1 MOL      0.000465
    103 H44        -0.8850   -2.0250   -4.5000 hc        1 MOL      0.053190
    104 H45        -1.1390   -2.6930   -2.9440 hc        1 MOL      0.053190
    105 H46        -1.9130   -3.5140   -4.3410 hc        1 MOL      0.053190
    106 H47        -1.5230   -0.5730   -2.3400 hc        1 MOL      0.053190
    107 H48        -2.2990    0.3700   -3.7130 hc        1 MOL      0.053190
    108 H49        -3.1110   -0.1160   -2.2040 hc        1 MOL      0.053190
    109 N10        -5.9950   -1.6340   -1.7270 n         1 MOL     -0.229630
    110 C35        -7.3260   -1.0140   -1.7500 c3        1 MOL      0.091274
    111 C36        -7.4030    0.4780   -1.3620 c         1 MOL      0.656557
    112 O17        -8.4350    1.0700   -1.6920 o         1 MOL     -0.587811
    113 C37        -8.3320   -1.8510   -1.0120 c3        1 MOL     -0.171913
    114 C38        -8.4130   -3.2850   -1.4360 c         1 MOL      0.744605
    115 N11        -8.4370   -3.5510   -2.7720 n         1 MOL     -0.870185
    116 O18        -8.4960   -4.2450   -0.7120 o         1 MOL     -0.581432
    117 H50        -5.7200   -1.9720   -0.8080 hn        1 MOL      0.216486
    118 H51        -7.6580   -1.0350   -2.7860 h1        1 MOL      0.012723
    119 H52        -9.3040   -1.4800   -1.3380 hc        1 MOL      0.042795
    120 H53        -8.1930   -1.7700    0.0650 hc        1 MOL      0.042795
    121 H54        -8.2990   -2.7860   -3.4250 hn        1 MOL      0.382639
    122 H55        -8.2380   -4.4800   -3.1130 hn        1 MOL      0.382639
    123 N12        -6.3910    1.0830   -0.7900 n         1 MOL     -0.545118
    124 C39        -6.4020    2.3880   -0.1610 c3        1 MOL      0.185406
    125 C40        -4.9540    2.9030    0.1560 c         1 MOL      0.397038
    126 O19        -3.8990    2.2190    0.0880 o         1 MOL     -0.478525
    127 C41        -7.3310    2.3390    1.1110 c3        1 MOL     -0.020243
    128 C42        -6.9440    1.2540    2.0760 ca        1 MOL     -0.165868
    129 C43        -7.6400   -0.0120    2.2670 ca        1 MOL      0.006155
    130 C44        -5.7240    1.4400    2.8330 ca        1 MOL      0.006155
    131 C45        -7.1840   -0.9960    3.1100 ca        1 MOL     -0.365491
    132 C46        -5.2440    0.4610    3.7120 ca        1 MOL     -0.365491
    133 C47        -5.9070   -0.8080    3.8250 ca        1 MOL      0.440200
    134 O20        -5.5790   -1.8090    4.7050 oh        1 MOL     -0.482898
    135 H56        -5.7010    0.4160   -0.4710 hn        1 MOL      0.283915
    136 H57        -6.9740    3.0150   -0.8510 h1        1 MOL      0.040905
    137 H58        -8.3420    2.2100    0.7130 hc        1 MOL      0.038543
    138 H59        -7.3830    3.3470    1.5240 hc        1 MOL      0.038543
    139 H60        -8.6080   -0.1330    1.7950 ha        1 MOL      0.066970
    140 H61        -5.2660    2.4140    2.7870 ha        1 MOL      0.066970
    141 H62        -7.7550   -1.8960    3.2550 ha        1 MOL      0.183023
    142 H63        -4.3760    0.6050    4.3370 ha        1 MOL      0.183023
    143 H64        -6.1950   -2.5440    4.6700 ho        1 MOL      0.320160
    144 N13        -4.8620    4.2150    0.4310 n         1 MOL     -0.490611
    145 C48        -3.7630    4.9730    0.8850 c3        1 MOL      0.264162
    146 C49        -2.5840    5.2140   -0.1260 c         1 MOL      0.142328
    147 O21        -2.0910    6.3200   -0.0540 o         1 MOL     -0.473564
    148 C50        -3.2780    4.3520    2.2250 c3        1 MOL     -0.088364
    149 C51        -2.1220    5.1380    2.9230 c3        1 MOL     -0.329221
    150 C52        -1.8610    4.7000    4.3360 c         1 MOL      0.667624
    151 O22        -2.6230    3.9140    5.0120 o         1 MOL     -0.693455
    152 O23        -0.9460    5.3130    4.9350 o         1 MOL     -0.693455
    153 H65        -5.6890    4.7580    0.2190 hn        1 MOL      0.251434
    154 H66        -4.0490    5.9640    1.2440 h1        1 MOL      0.032214
    155 H67        -2.9550    3.3140    2.1210 hc        1 MOL      0.080245
    156 H68        -4.1600    4.3900    2.8800 hc        1 MOL      0.080245
    157 H69        -2.3930    6.1780    2.7870 hc        1 MOL      0.113616
    158 H70        -1.2760    4.8790    2.2870 hc        1 MOL      0.113616
    159 N14        -2.2040    4.3070   -1.0220 n         1 MOL     -0.155722
    160 C53        -0.9920    4.4320   -1.8550 c3        1 MOL     -0.149951
    161 C54        -1.2970    5.2950   -3.0610 c         1 MOL      0.453280
    162 O24        -0.4220    5.7830   -3.7910 o         1 MOL     -0.547619
    163 C55        -0.3710    3.0620   -2.2380 c3        1 MOL      0.010708
    164 C56        -0.1760    2.0990   -1.0830 c3        1 MOL      0.264401
    165 C57         0.8660    2.6090   -0.0280 c         1 MOL      0.480506
    166 O25         0.6060    3.5680    0.7540 o         1 MOL     -0.574110
    167 O26         1.9600    1.9340    0.0260 o         1 MOL     -0.574110
    168 H71        -2.5890    3.3730   -0.9970 hn        1 MOL      0.190562
    169 H72        -0.2640    4.9180   -1.2010 h1        1 MOL      0.180270
    170 H73         0.6330    3.3050   -2.5630 hc        1 MOL     -0.016348
    171 H74        -0.8470    2.5120   -3.0380 hc        1 MOL     -0.016348
    172 H75         0.1700    1.2110   -1.6280 hc        1 MOL     -0.060456
    173 H76        -1.1570    1.8800   -0.6650 hc        1 MOL     -0.060456
    174 N15        -2.5760    5.4790   -3.3340 n         1 MOL     -0.121274
    175 C58        -3.1330    6.2280   -4.4730 c3        1 MOL     -0.237921
    176 H77        -4.1730    6.4810   -4.2660 h1        1 MOL      0.089472
    177 H78        -2.5590    7.1430   -4.6220 h1        1 MOL      0.089472
    178 H79        -3.0810    5.6150   -5.3720 h1        1 MOL      0.089472
    179 H80        -3.2120    4.8710   -2.8370 hn        1 MOL      0.168787
    180 Ca1         4.2940    1.8060    0.9270 Ca        1 MOL      1.805669
    181 O27         3.0760    4.2850    1.1130 oh        1 MOL     -0.816532
    182 H81         2.2350    4.0050    0.7640 ho        1 MOL      0.383212
    183 H82         2.8590    4.9970    1.7150 ho        1 MOL      0.383212
    184 O28         5.3520    3.3580    2.9640 oh        1 MOL     -0.816532
    185 H83         6.1490    3.8750    2.8280 ho        1 MOL      0.383212
    186 H84         5.4410    3.0040    3.8470 ho        1 MOL      0.383212
    187 O29         5.5980    0.3520    2.6970 oh        1 MOL     -0.816532
    188 H85         5.8410    0.3290    3.6150 ho        1 MOL      0.383212
    189 H86         6.2370   -0.2080    2.2620 ho        1 MOL      0.383212
@<TRIPOS>BOND
     1    1    2 1   
     2    1    4 1   
     3    1    5 1   
     4    1    6 1   
     5    2    3 2   
     6    2    7 1   
     7    7    8 1   
     8    7   15 1   
     9    8    9 1   
    10    8   11 1   
    11    8   16 1   
    12    9   10 2   
    13    9   19 1   
    14   11   12 1   
    15   11   17 1   
    16   11   18 1   
    17   12   13 1   
    18   12   14 1   
    19   19   20 1   
    20   19   27 1   
    21   20   21 1   
    22   20   23 1   
    23   20   28 1   
    24   21   22 2   
    25   21   38 1   
    26   23   24 1   
    27   23   25 1   
    28   23   29 1   
    29   24   26 1   
    30   24   30 1   
    31   24   31 1   
    32   25   32 1   
    33   25   33 1   
    34   25   34 1   
    35   26   35 1   
    36   26   36 1   
    37   26   37 1   
    38   38   39 1   
    39   38   46 1   
    40   39   40 1   
    41   39   42 1   
    42   39   47 1   
    43   40   41 2   
    44   40   50 1   
    45   42   43 1   
    46   42   48 1   
    47   42   49 1   
    48   43   44 1   
    49   43   45 1   
    50   50   51 1   
    51   50   54 1   
    52   51   52 1   
    53   51   55 1   
    54   51   56 1   
    55   52   53 2   
    56   52   57 1   
    57   57   58 1   
    58   57   65 1   
    59   58   59 1   
    60   58   61 1   
    61   58   66 1   
    62   59   60 2   
    63   59   69 1   
    64   61   62 1   
    65   61   67 1   
    66   61   68 1   
    67   62   63 1   
    68   62   64 1   
    69   69   70 1   
    70   69   73 1   
    71   70   71 1   
    72   70   74 1   
    73   70   75 1   
    74   71   72 2   
    75   71   76 1   
    76   76   77 1   
    77   76   85 1   
    78   77   78 1   
    79   77   80 1   
    80   77   86 1   
    81   78   79 2   
    82   78   93 1   
    83   80   81 1   
    84   80   87 1   
    85   80   88 1   
    86   81   82 1   
    87   81   89 1   
    88   81   90 1   
    89   82   83 1   
    90   82   84 2   
    91   83   91 1   
    92   83   92 1   
    93   93   94 1   
    94   93  100 1   
    95   94   95 1   
    96   94   97 1   
    97   94  101 1   
    98   95   96 2   
    99   95  109 1   
   100   97   98 1   
   101   97   99 1   
   102   97  102 1   
   103   98  103 1   
   104   98  104 1   
   105   98  105 1   
   106   99  106 1   
   107   99  107 1   
   108   99  108 1   
   109  109  110 1   
   110  109  117 1   
   111  110  111 1   
   112  110  113 1   
   113  110  118 1   
   114  111  112 2   
   115  111  123 1   
   116  113  114 1   
   117  113  119 1   
   118  113  120 1   
   119  114  115 1   
   120  114  116 2   
   121  115  121 1   
   122  115  122 1   
   123  123  124 1   
   124  123  135 1   
   125  124  125 1   
   126  124  127 1   
   127  124  136 1   
   128  125  126 2   
   129  125  144 1   
   130  127  128 1   
   131  127  137 1   
   132  127  138 1   
   133  128  129 ar  
   134  128  130 ar  
   135  129  131 ar  
   136  129  139 1   
   137  130  132 ar  
   138  130  140 1   
   139  131  133 ar  
   140  131  141 1   
   141  132  133 ar  
   142  132  142 1   
   143  133  134 1   
   144  134  143 1   
   145  144  145 1   
   146  144  153 1   
   147  145  146 1   
   148  145  148 1   
   149  145  154 1   
   150  146  147 2   
   151  146  159 1   
   152  148  149 1   
   153  148  155 1   
   154  148  156 1   
   155  149  150 1   
   156  149  157 1   
   157  149  158 1   
   158  150  151 1   
   159  150  152 1   
   160  159  160 1   
   161  159  168 1   
   162  160  161 1   
   163  160  163 1   
   164  160  169 1   
   165  161  162 2   
   166  161  174 1   
   167  163  164 1   
   168  163  170 1   
   169  163  171 1   
   170  164  165 1   
   171  164  172 1   
   172  164  173 1   
   173  165  166 1   
   174  165  167 1   
   175  174  175 1   
   176  174  179 1   
   177  175  176 1   
   178  175  177 1   
   179  175  178 1   
   180  181  182 1   
   181  181  183 1   
   182  184  185 1   
   183  184  186 1   
   184  187  188 1   
   185  187  189 1   
@<TRIPOS>SUBSTRUCTURE
     1 MOL         1 TEMP              0 ****  ****    0 ROOT
