@<TRIPOS>MOLECULE
MOL
  189   185     1     0     0
SMALL
resp


@<TRIPOS>ATOM
      1 C1          6.4000   -3.8060   -2.9190 c3        1 MOL     -0.212279
      2 C2          5.0820   -3.5830   -2.0930 c         1 MOL      0.558654
      3 O1          4.3830   -2.6210   -2.3130 o         1 MOL     -0.449184
      4 H1          7.1290   -4.3350   -2.3040 hc        1 MOL      0.039215
      5 H2          6.1780   -4.3970   -3.8070 hc        1 MOL      0.039215
      6 H3          6.8110   -2.8410   -3.2180 hc        1 MOL      0.039215
      7 N1          4.8450   -4.4350   -1.0510 n         1 MOL     -0.541051
      8 C3          3.7220   -4.2260   -0.1070 c3        1 MOL      0.019810
      9 C4          2.2930   -4.1300   -0.7550 c         1 MOL      0.660842
     10 O2          1.3740   -3.4510   -0.2530 o         1 MOL     -0.536753
     11 C5          4.0110   -2.9890    0.7690 c3        1 MOL     -0.692492
     12 C6          5.5150   -2.8100    1.1450 c         1 MOL      1.002315
     13 O3          5.9760   -1.6820    1.2900 o         1 MOL     -0.792897
     14 O4          6.2520   -3.7180    1.4770 o         1 MOL     -0.792897
     15 H4          5.6850   -4.9590   -0.8610 hn        1 MOL      0.282690
     16 H5          3.7060   -5.1720    0.4380 h1        1 MOL      0.111894
     17 H6          3.5950   -3.0610    1.7780 hc        1 MOL      0.225426
     18 H7          3.7910   -2.0630    0.2470 hc        1 MOL      0.225426
     19 N2          2.0370   -4.9300   -1.8220 n         1 MOL     -0.660295
     20 C7          0.7600   -5.0770   -2.6400 c3        1 MOL      0.245768
     21 C8         -0.0980   -6.3160   -2.1290 c         1 MOL      0.469206
     22 O5          0.2330   -7.4200   -2.5400 o         1 MOL     -0.592937
     23 C9          0.9100   -5.0070   -4.1720 c3        1 MOL      0.218180
     24 C10         1.8870   -3.9060   -4.5820 c3        1 MOL     -0.025337
     25 C11        -0.4410   -4.8160   -4.8920 c3        1 MOL     -0.422823
     26 C12         1.5630   -2.4610   -4.1610 c3        1 MOL     -0.213710
     27 H8          2.8460   -5.4130   -2.1880 hn        1 MOL      0.296759
     28 H9          0.2150   -4.1920   -2.3130 h1        1 MOL      0.091878
     29 H10         1.3850   -5.9530   -4.4580 hc        1 MOL     -0.057125
     30 H11         1.9080   -3.9370   -5.6680 hc        1 MOL      0.003837
     31 H12         2.8960   -4.1670   -4.2580 hc        1 MOL      0.003837
     32 H13        -0.2860   -4.8350   -5.9770 hc        1 MOL      0.099368
     33 H14        -1.0870   -5.6600   -4.6650 hc        1 MOL      0.099368
     34 H15        -0.8070   -3.8080   -4.6990 hc        1 MOL      0.099368
     35 H16         0.7460   -1.9980   -4.7130 hc        1 MOL      0.067141
     36 H17         1.3170   -2.4800   -3.0950 hc        1 MOL      0.067141
     37 H18         2.5070   -1.9230   -4.1520 hc        1 MOL      0.067141
     38 N3         -1.1270   -6.1120   -1.3560 n         1 MOL     -0.366399
     39 C13        -1.6410   -4.9150   -0.6910 c3        1 MOL      0.043160
     40 C14        -2.3010   -5.3860    0.6310 c         1 MOL      0.497435
     41 O6         -2.7510   -6.5390    0.7470 o         1 MOL     -0.529962
     42 C15        -2.5570   -4.1100   -1.6020 c3        1 MOL     -0.133528
     43 C16        -3.2230   -2.9580   -0.8980 c         1 MOL      0.694246
     44 O7         -4.2400   -3.2570   -0.3030 o         1 MOL     -0.613339
     45 O8         -2.6290   -1.8680   -0.8550 o         1 MOL     -0.613339
     46 H19        -1.7590   -6.8740   -1.1570 hn        1 MOL      0.261075
     47 H20        -0.8410   -4.2210   -0.4100 h1        1 MOL      0.039317
     48 H21        -3.3350   -4.7460   -2.0300 hc        1 MOL      0.006381
     49 H22        -1.9690   -3.6510   -2.4040 hc        1 MOL      0.006381
     50 N4         -2.2510   -4.5860    1.7250 n         1 MOL     -0.442006
     51 C17        -2.8430   -4.9130    3.0350 c3        1 MOL      0.020502
     52 C18        -4.0160   -4.0330    3.4220 c         1 MOL      0.630755
     53 O9         -4.3590   -4.1080    4.5830 o         1 MOL     -0.600352
     54 H23        -1.9230   -3.6300    1.7030 hn        1 MOL      0.329778
     55 H24        -2.0880   -4.8750    3.8250 h1        1 MOL      0.051353
     56 H25        -3.2050   -5.9350    2.9810 h1        1 MOL      0.051353
     57 N5         -4.7510   -3.3620    2.4710 n         1 MOL     -0.533667
     58 C19        -5.9600   -2.6010    2.9400 c3        1 MOL      0.109360
     59 C20        -7.0010   -2.3080    1.8790 c         1 MOL      0.338064
     60 O10        -8.1800   -2.0630    2.1660 o         1 MOL     -0.550734
     61 C21        -5.5630   -1.3300    3.6650 c3        1 MOL     -0.230800
     62 C22        -4.5320   -0.4490    2.9070 c         1 MOL      0.765621
     63 O11        -4.8380    0.2640    1.9060 o         1 MOL     -0.678150
     64 O12        -3.3960   -0.3740    3.4030 o         1 MOL     -0.678150
     65 H26        -4.3540   -3.2100    1.5470 hn        1 MOL      0.275569
     66 H27        -6.5340   -3.2660    3.5840 h1        1 MOL      0.083251
     67 H28        -5.1050   -1.5480    4.6330 hc        1 MOL      0.042871
     68 H29        -6.4600   -0.7240    3.7490 hc        1 MOL      0.042871
     69 N6         -6.6370   -2.2380    0.6020 n         1 MOL     -0.005334
     70 C23        -7.6710   -1.9180   -0.4470 c3        1 MOL     -0.379094
     71 C24        -8.1240   -0.4370   -0.4370 c         1 MOL      0.589693
     72 O13        -8.9840   -0.0160   -1.2730 o         1 MOL     -0.620469
     73 H30        -5.7450   -2.5600    0.2530 hn        1 MOL      0.147403
     74 H31        -8.5610   -2.5210   -0.2690 h1        1 MOL      0.137766
     75 H32        -7.3090   -2.0780   -1.4720 h1        1 MOL      0.137766
     76 N7         -7.5170    0.3530    0.4660 n         1 MOL      0.006260
     77 C25        -7.6070    1.8100    0.6290 c3        1 MOL      0.095464
     78 C26        -7.4820    2.5630   -0.6430 c         1 MOL      0.477441
     79 O14        -8.1000    3.6100   -0.8690 o         1 MOL     -0.547906
     80 C27        -8.7290    2.2470    1.5830 c3        1 MOL     -0.026479
     81 C28        -8.7950    1.4780    2.9060 c3        1 MOL     -0.000622
     82 C29        -9.4830    2.1690    4.0630 c         1 MOL      0.655812
     83 N8         -9.4740    1.6060    5.2420 n         1 MOL     -0.828609
     84 O15       -10.1520    3.2160    3.8440 o         1 MOL     -0.589335
     85 H33        -6.8830   -0.1320    1.0880 hn        1 MOL     -0.101544
     86 H34        -6.7480    2.1330    1.2320 h1        1 MOL      0.078744
     87 H35        -9.6370    2.0370    1.0030 hc        1 MOL     -0.003913
     88 H36        -8.5970    3.3140    1.7490 hc        1 MOL     -0.003913
     89 H37        -7.7380    1.3700    3.1560 hc        1 MOL      0.011790
     90 H38        -9.2070    0.4880    2.7390 hc        1 MOL      0.011790
     91 H39        -9.1700    0.6560    5.4330 hn        1 MOL      0.355261
     92 H40        -9.8660    2.0240    6.0770 hn        1 MOL      0.355261
     93 N9         -6.5890    2.0560   -1.4780 n         1 MOL     -0.355930
     94 C30        -6.1970    2.7830   -2.7960 c3        1 MOL     -0.158139
     95 C31        -4.6880    2.7650   -3.0620 c         1 MOL      0.503116
     96 O16        -4.2540    2.9980   -4.1990 o         1 MOL     -0.557019
     97 C32        -6.9220    2.1390   -3.8950 c3        1 MOL      0.467419
     98 C33        -6.5340    0.6600   -4.0500 c3        1 MOL     -0.315740
     99 C34        -8.4250    2.4330   -3.9460 c3        1 MOL     -0.315740
    100 H41        -6.1520    1.1770   -1.2480 hn        1 MOL      0.276665
    101 H42        -6.5670    3.8160   -2.7740 h1        1 MOL      0.114926
    102 H43        -6.5710    2.5860   -4.8220 hc        1 MOL     -0.076165
    103 H44        -5.4460    0.7240   -4.1860 hc        1 MOL      0.055516
    104 H45        -6.8690    0.0350   -3.2230 hc        1 MOL      0.055516
    105 H46        -6.9730    0.2470   -4.9630 hc        1 MOL      0.055516
    106 H47        -8.7980    2.1230   -4.9310 hc        1 MOL      0.055516
    107 H48        -8.9300    1.9200   -3.1330 hc        1 MOL      0.055516
    108 H49        -8.6050    3.4950   -3.8060 hc        1 MOL      0.055516
    109 N10        -3.8160    2.3800   -2.1350 n         1 MOL     -0.502699
    110 C35        -2.3560    2.2290   -2.3650 c3        1 MOL      0.452649
    111 C36        -1.4920    2.5380   -1.0530 c         1 MOL      0.388900
    112 O17        -2.0700    2.5480    0.0520 o         1 MOL     -0.489346
    113 C37        -2.1500    0.8030   -2.8930 c3        1 MOL     -0.179726
    114 C38        -0.6360    0.3300   -2.8420 c         1 MOL      0.516002
    115 N11        -0.4670   -0.7230   -2.0870 n         1 MOL     -0.676043
    116 O18         0.3200    0.9130   -3.3730 o         1 MOL     -0.603050
    117 H50        -4.1590    2.0730   -1.2340 hn        1 MOL      0.241912
    118 H51        -2.0490    2.9260   -3.1400 h1        1 MOL     -0.027930
    119 H52        -2.3650    0.8160   -3.9580 hc        1 MOL      0.061008
    120 H53        -2.7110    0.1000   -2.2810 hc        1 MOL      0.061008
    121 H54        -1.2110   -1.1920   -1.5830 hn        1 MOL      0.350508
    122 H55         0.5010   -0.9140   -1.8930 hn        1 MOL      0.350508
    123 N12        -0.1970    2.8020   -1.2110 n         1 MOL     -0.603335
    124 C39         0.7220    3.1750   -0.1450 c3        1 MOL      0.498524
    125 C40         1.9770    3.9000   -0.6570 c         1 MOL      0.267763
    126 O19         2.4930    3.5530   -1.7050 o         1 MOL     -0.518334
    127 C41         1.1910    1.8620    0.5890 c3        1 MOL     -0.317647
    128 C42         1.8380    2.1550    1.9360 ca        1 MOL     -0.000402
    129 C43         1.1250    2.8890    2.9020 ca        1 MOL     -0.058937
    130 C44         3.1320    1.6170    2.2100 ca        1 MOL     -0.058937
    131 C45         1.7520    3.2640    4.0890 ca        1 MOL     -0.347825
    132 C46         3.7150    1.9960    3.4240 ca        1 MOL     -0.347825
    133 C47         3.0630    2.8470    4.3670 ca        1 MOL      0.374650
    134 O20         3.7580    3.2430    5.4530 oh        1 MOL     -0.486830
    135 H56         0.1720    2.6320   -2.1340 hn        1 MOL      0.301279
    136 H57         0.2210    3.9410    0.4360 h1        1 MOL     -0.019504
    137 H58         1.8920    1.2960   -0.0220 hc        1 MOL      0.135092
    138 H59         0.3100    1.2830    0.8860 hc        1 MOL      0.135092
    139 H60         0.1050    3.1590    2.7140 ha        1 MOL      0.114205
    140 H61         3.6900    1.0910    1.4490 ha        1 MOL      0.114205
    141 H62         1.2290    3.8100    4.8610 ha        1 MOL      0.155233
    142 H63         4.7400    1.7280    3.6490 ha        1 MOL      0.155233
    143 H64         3.1380    3.7150    6.0130 ho        1 MOL      0.345512
    144 N13         2.5180    4.7490    0.1930 n         1 MOL     -0.137917
    145 C48         3.7630    5.4540    0.0050 c3        1 MOL      0.107091
    146 C49         4.8650    5.0270    1.0410 c         1 MOL      0.443298
    147 O21         4.9520    5.5150    2.1160 o         1 MOL     -0.511305
    148 C50         3.5280    7.0200    0.1290 c3        1 MOL     -0.062403
    149 C51         2.6010    7.6440   -0.9550 c3        1 MOL     -0.097375
    150 C52         2.2200    9.1270   -0.8330 c         1 MOL      0.692195
    151 O22         2.3330    9.8200   -1.8410 o         1 MOL     -0.687523
    152 O23         1.7860    9.6230    0.2610 o         1 MOL     -0.687523
    153 H65         1.9070    5.1040    0.9060 hn        1 MOL      0.210036
    154 H66         4.1270    5.2750   -0.9980 h1        1 MOL      0.117080
    155 H67         4.4930    7.5090   -0.0140 hc        1 MOL      0.012966
    156 H68         3.1720    7.1610    1.1460 hc        1 MOL      0.012966
    157 H69         1.7520    6.9730   -0.8550 hc        1 MOL     -0.005435
    158 H70         3.0760    7.4490   -1.9120 hc        1 MOL     -0.005435
    159 N14         5.7870    4.0870    0.6570 n         1 MOL     -0.246255
    160 C53         5.6550    3.0900   -0.4480 c3        1 MOL     -0.883585
    161 C54         6.0640    3.5730   -1.8640 c         1 MOL      0.623008
    162 O24         6.6050    4.6560   -2.0480 o         1 MOL     -0.537528
    163 C55         6.3590    1.7650   -0.1000 c3        1 MOL      0.436983
    164 C56         7.8380    1.8760    0.2610 c3        1 MOL      0.298824
    165 C57         8.4080    0.4970    0.6560 c         1 MOL      0.472336
    166 O25         8.5450    0.2100    1.8850 o         1 MOL     -0.762495
    167 O26         8.6830   -0.3120   -0.2320 o         1 MOL     -0.762495
    168 H71         6.5810    3.8970    1.2490 hn        1 MOL      0.275782
    169 H72         4.6120    2.8370   -0.6330 h1        1 MOL      0.254659
    170 H73         6.2930    1.1020   -0.9630 hc        1 MOL     -0.034457
    171 H74         5.7760    1.2270    0.6560 hc        1 MOL     -0.034457
    172 H75         7.9920    2.5070    1.1330 hc        1 MOL     -0.070648
    173 H76         8.4070    2.1870   -0.6020 hc        1 MOL     -0.070648
    174 N15         5.6090    2.8860   -2.9040 n         1 MOL     -0.237445
    175 C58         5.8550    3.1290   -4.3190 c3        1 MOL     -0.316668
    176 H77         5.0750    3.7790   -4.7170 h1        1 MOL      0.122608
    177 H78         6.8260    3.6100   -4.4420 h1        1 MOL      0.122608
    178 H79         5.8470    2.1820   -4.8580 h1        1 MOL      0.122608
    179 H80         5.0160    2.0910   -2.7190 hn        1 MOL      0.277476
    180 Ca1         8.6120   -2.4640    1.5670 Ca        1 MOL      1.604621
    181 O27        10.6310   -2.1380    3.5270 oh        1 MOL     -0.853804
    182 H81        11.3850   -1.6240    3.2400 ho        1 MOL      0.415400
    183 H82        10.2390   -1.6280    4.2260 ho        1 MOL      0.415400
    184 O28         7.4890   -2.7320    4.1250 oh        1 MOL     -0.853804
    185 H83         6.6350   -2.9860    3.7770 ho        1 MOL      0.415400
    186 H84         7.3010   -2.2880    4.9540 ho        1 MOL      0.415400
    187 O29         8.8620   -5.0410    2.3620 oh        1 MOL     -0.853804
    188 H85         9.4930   -5.5870    2.8250 ho        1 MOL      0.415400
    189 H86         8.0470   -5.5250    2.4070 ho        1 MOL      0.415400
@<TRIPOS>BOND
     1    1    2 1   
     2    1    4 1   
     3    1    5 1   
     4    1    6 1   
     5    2    3 2   
     6    2    7 1   
     7    7    8 1   
     8    7   15 1   
     9    8    9 1   
    10    8   11 1   
    11    8   16 1   
    12    9   10 2   
    13    9   19 1   
    14   11   12 1   
    15   11   17 1   
    16   11   18 1   
    17   12   13 1   
    18   12   14 1   
    19   19   20 1   
    20   19   27 1   
    21   20   21 1   
    22   20   23 1   
    23   20   28 1   
    24   21   22 2   
    25   21   38 1   
    26   23   24 1   
    27   23   25 1   
    28   23   29 1   
    29   24   26 1   
    30   24   30 1   
    31   24   31 1   
    32   25   32 1   
    33   25   33 1   
    34   25   34 1   
    35   26   35 1   
    36   26   36 1   
    37   26   37 1   
    38   38   39 1   
    39   38   46 1   
    40   39   40 1   
    41   39   42 1   
    42   39   47 1   
    43   40   41 2   
    44   40   50 1   
    45   42   43 1   
    46   42   48 1   
    47   42   49 1   
    48   43   44 1   
    49   43   45 1   
    50   50   51 1   
    51   50   54 1   
    52   51   52 1   
    53   51   55 1   
    54   51   56 1   
    55   52   53 2   
    56   52   57 1   
    57   57   58 1   
    58   57   65 1   
    59   58   59 1   
    60   58   61 1   
    61   58   66 1   
    62   59   60 2   
    63   59   69 1   
    64   61   62 1   
    65   61   67 1   
    66   61   68 1   
    67   62   63 1   
    68   62   64 1   
    69   69   70 1   
    70   69   73 1   
    71   70   71 1   
    72   70   74 1   
    73   70   75 1   
    74   71   72 2   
    75   71   76 1   
    76   76   77 1   
    77   76   85 1   
    78   77   78 1   
    79   77   80 1   
    80   77   86 1   
    81   78   79 2   
    82   78   93 1   
    83   80   81 1   
    84   80   87 1   
    85   80   88 1   
    86   81   82 1   
    87   81   89 1   
    88   81   90 1   
    89   82   83 1   
    90   82   84 2   
    91   83   91 1   
    92   83   92 1   
    93   93   94 1   
    94   93  100 1   
    95   94   95 1   
    96   94   97 1   
    97   94  101 1   
    98   95   96 2   
    99   95  109 1   
   100   97   98 1   
   101   97   99 1   
   102   97  102 1   
   103   98  103 1   
   104   98  104 1   
   105   98  105 1   
   106   99  106 1   
   107   99  107 1   
   108   99  108 1   
   109  109  110 1   
   110  109  117 1   
   111  110  111 1   
   112  110  113 1   
   113  110  118 1   
   114  111  112 2   
   115  111  123 1   
   116  113  114 1   
   117  113  119 1   
   118  113  120 1   
   119  114  115 1   
   120  114  116 2   
   121  115  121 1   
   122  115  122 1   
   123  123  124 1   
   124  123  135 1   
   125  124  125 1   
   126  124  127 1   
   127  124  136 1   
   128  125  126 2   
   129  125  144 1   
   130  127  128 1   
   131  127  137 1   
   132  127  138 1   
   133  128  129 ar  
   134  128  130 ar  
   135  129  131 ar  
   136  129  139 1   
   137  130  132 ar  
   138  130  140 1   
   139  131  133 ar  
   140  131  141 1   
   141  132  133 ar  
   142  132  142 1   
   143  133  134 1   
   144  134  143 1   
   145  144  145 1   
   146  144  153 1   
   147  145  146 1   
   148  145  148 1   
   149  145  154 1   
   150  146  147 2   
   151  146  159 1   
   152  148  149 1   
   153  148  155 1   
   154  148  156 1   
   155  149  150 1   
   156  149  157 1   
   157  149  158 1   
   158  150  151 1   
   159  150  152 1   
   160  159  160 1   
   161  159  168 1   
   162  160  161 1   
   163  160  163 1   
   164  160  169 1   
   165  161  162 2   
   166  161  174 1   
   167  163  164 1   
   168  163  170 1   
   169  163  171 1   
   170  164  165 1   
   171  164  172 1   
   172  164  173 1   
   173  165  166 1   
   174  165  167 1   
   175  174  175 1   
   176  174  179 1   
   177  175  176 1   
   178  175  177 1   
   179  175  178 1   
   180  181  182 1   
   181  181  183 1   
   182  184  185 1   
   183  184  186 1   
   184  187  188 1   
   185  187  189 1   
@<TRIPOS>SUBSTRUCTURE
     1 MOL         1 TEMP              0 ****  ****    0 ROOT
