@<TRIPOS>MOLECULE
MOL
  182   178     1     0     0
SMALL
resp


@<TRIPOS>ATOM
      1 C1          1.7980   -5.9940    5.3900 c3        1 MOL     -0.402262
      2 C2          1.5850   -5.2090    4.0720 c         1 MOL      0.710189
      3 O1          0.5000   -5.1160    3.5310 o         1 MOL     -0.608084
      4 H1          2.1740   -6.9910    5.1620 hc        1 MOL      0.113292
      5 H2          2.5200   -5.4680    6.0140 hc        1 MOL      0.113292
      6 H3          0.8490   -6.0770    5.9210 hc        1 MOL      0.113292
      7 N1          2.5980   -4.4650    3.5720 n         1 MOL     -0.587058
      8 C3          2.6000   -3.7380    2.3530 c3        1 MOL     -0.016084
      9 C4          2.9810   -4.6790    1.1870 c         1 MOL      0.476963
     10 O2          3.9780   -5.4300    1.1050 o         1 MOL     -0.517983
     11 C5          3.5570   -2.5140    2.5850 c3        1 MOL      0.019373
     12 C6          3.5660   -1.5590    1.2880 c         1 MOL      0.621762
     13 O3          4.1050   -0.4600    1.3920 o         1 MOL     -0.685465
     14 O4          3.1640   -1.8800    0.1760 o         1 MOL     -0.685465
     15 H4          3.4010   -4.3740    4.1780 hn        1 MOL      0.318809
     16 H5          1.5820   -3.3920    2.1630 h1        1 MOL      0.124973
     17 H6          4.5290   -2.9500    2.8230 hc        1 MOL      0.013389
     18 H7          3.1220   -1.9830    3.4330 hc        1 MOL      0.013389
     19 N2          2.0470   -4.7080    0.2630 n         1 MOL     -0.077337
     20 C7          2.0120   -5.6250   -0.9280 c3        1 MOL     -0.186237
     21 C8          3.2560   -5.3240   -1.7690 c         1 MOL      0.553195
     22 O5          3.9070   -6.2780   -2.1920 o         1 MOL     -0.547414
     23 C9          0.7460   -5.3720   -1.7390 c3        1 MOL     -0.210066
     24 C10        -0.4610   -5.8790   -0.9830 c3        1 MOL      0.169984
     25 C11        -1.7910   -5.5560   -1.6720 c3        1 MOL     -0.167006
     26 C12        -2.8590   -6.5410   -1.1330 c3        1 MOL     -0.038145
     27 N3         -3.2590   -6.2820    0.2330 n4        1 MOL     -0.326506
     28 H8          1.3040   -4.0410    0.3290 hn        1 MOL      0.009585
     29 H9          2.0260   -6.6440   -0.5390 h1        1 MOL      0.135505
     30 H10         0.6220   -5.8860   -2.6910 hc        1 MOL      0.086785
     31 H11         0.7730   -4.3250   -2.0470 hc        1 MOL      0.086785
     32 H12        -0.3990   -5.5470    0.0600 hc        1 MOL      0.010821
     33 H13        -0.2830   -6.9490   -0.8900 hc        1 MOL      0.010821
     34 H14        -1.7360   -5.7660   -2.7370 hc        1 MOL      0.073664
     35 H15        -2.0560   -4.5130   -1.5530 hc        1 MOL      0.073664
     36 H16        -2.3550   -7.5080   -1.1660 hx        1 MOL      0.103104
     37 H17        -3.7350   -6.6160   -1.7810 hx        1 MOL      0.103104
     38 H18        -3.8510   -5.4660    0.2300 hn        1 MOL      0.287549
     39 H19        -3.7740   -7.0870    0.5750 hn        1 MOL      0.287549
     40 H20        -2.4390   -6.1000    0.7970 hn        1 MOL      0.287549
     41 N4          3.7350   -4.0820   -1.8360 n         1 MOL     -0.356500
     42 C13         4.9970   -3.6270   -2.4650 c3        1 MOL      0.096537
     43 C14         6.1310   -3.2050   -1.6420 c         1 MOL      0.465947
     44 O6          7.2540   -3.5190   -2.0370 o         1 MOL     -0.545353
     45 C15         4.7260   -2.4870   -3.5600 c3        1 MOL     -0.401321
     46 C16         4.0100   -1.3430   -2.9410 c         1 MOL      0.840470
     47 O7          4.5860   -0.5520   -2.1710 o         1 MOL     -0.799532
     48 O8          2.7290   -1.2540   -3.0910 o         1 MOL     -0.799532
     49 H21         3.2000   -3.4280   -1.2790 hn        1 MOL      0.285752
     50 H22         5.2320   -4.5080   -3.0520 h1        1 MOL      0.103832
     51 H23         4.0970   -2.9690   -4.3140 hc        1 MOL      0.112396
     52 H24         5.6670   -2.1880   -4.0320 hc        1 MOL      0.112396
     53 N5          5.9380   -2.5840   -0.4370 n         1 MOL     -0.053613
     54 C17         7.0760   -2.1770    0.4060 c3        1 MOL     -0.372227
     55 C18         7.5720   -0.7470    0.1420 c         1 MOL      0.620431
     56 O9          8.5710   -0.3760    0.7550 o         1 MOL     -0.578514
     57 H25         5.0090   -2.3860   -0.0870 hn        1 MOL      0.046956
     58 H26         7.9260   -2.8360    0.1970 h1        1 MOL      0.161264
     59 H27         6.8490   -2.2130    1.4700 h1        1 MOL      0.161264
     60 N6          6.7790    0.0700   -0.5550 n         1 MOL     -0.336088
     61 C19         7.1230    1.4780   -0.7140 c3        1 MOL      0.131885
     62 C20         5.9180    2.3540   -0.6860 c         1 MOL      0.433620
     63 O10         4.7820    1.8880   -0.7760 o         1 MOL     -0.395776
     64 C21         8.0550    1.5510   -1.9410 c3        1 MOL     -0.325511
     65 C22         7.3910    2.0080   -3.1970 c         1 MOL      0.616341
     66 N7          6.8270    1.0760   -4.0150 n         1 MOL     -0.738536
     67 O11         7.2360    3.1900   -3.3710 o         1 MOL     -0.558955
     68 H28         5.9800   -0.3680   -1.0010 hn        1 MOL      0.230722
     69 H29         7.7780    1.8470    0.0790 h1        1 MOL      0.065015
     70 H30         8.5640    0.6170   -2.1920 hc        1 MOL      0.102670
     71 H31         8.7280    2.3640   -1.6590 hc        1 MOL      0.102670
     72 H32         6.9610    0.1420   -3.6590 hn        1 MOL      0.359815
     73 H33         6.4560    1.2720   -4.9320 hn        1 MOL      0.359815
     74 N8          6.1370    3.6800   -0.6050 n         1 MOL     -0.345832
     75 C23         5.0710    4.6890   -0.5010 c3        1 MOL     -0.128964
     76 C24         4.1740    4.6640    0.7090 c         1 MOL      0.590745
     77 O12         4.5810    4.5870    1.8610 o         1 MOL     -0.508836
     78 H34         7.1040    4.0100   -0.5980 hn        1 MOL      0.308148
     79 H35         4.5190    4.8920   -1.4160 h1        1 MOL      0.095192
     80 H36         5.5600    5.6600   -0.3660 h1        1 MOL      0.095192
     81 N9          2.8560    4.7810    0.4520 n         1 MOL     -0.635036
     82 C25         1.8200    4.6510    1.4780 c3        1 MOL      0.258669
     83 C26         1.6940    3.1230    1.7710 c         1 MOL      0.535566
     84 O13         2.4100    2.2650    1.1870 o         1 MOL     -0.497976
     85 C27         0.5950    5.3850    0.9790 c3        1 MOL     -0.081189
     86 C28         0.6320    6.9000    0.7180 ca        1 MOL      0.068065
     87 C29         1.1470    7.8450    1.5730 ca        1 MOL     -0.159949
     88 C30         0.0560    7.3130   -0.4910 ca        1 MOL     -0.159949
     89 C31         1.1960    9.2270    1.1630 ca        1 MOL     -0.258653
     90 C32         0.1120    8.6450   -0.8930 ca        1 MOL     -0.258653
     91 C33         0.7000    9.6710   -0.0510 ca        1 MOL      0.359630
     92 O14         0.7690   10.9630   -0.3830 oh        1 MOL     -0.491312
     93 H37         2.5180    4.9740   -0.4790 hn        1 MOL      0.314075
     94 H38         2.1230    5.1660    2.3890 h1        1 MOL      0.043887
     95 H39        -0.1820    5.1680    1.7210 hc        1 MOL      0.009770
     96 H40         0.3800    4.8630    0.0420 hc        1 MOL      0.009770
     97 H41         1.5540    7.5210    2.5170 ha        1 MOL      0.132867
     98 H42        -0.3860    6.5500   -1.1180 ha        1 MOL      0.132867
     99 H43         1.6910    9.9060    1.8520 ha        1 MOL      0.147896
    100 H44        -0.3670    9.0380   -1.7820 ha        1 MOL      0.147896
    101 H45         1.0110   11.6180    0.2820 ho        1 MOL      0.390739
    102 N10         0.7830    2.7710    2.6890 n         1 MOL     -0.721389
    103 C34         0.4140    1.3890    3.0600 c3        1 MOL      0.168671
    104 C35         0.0190    0.4590    1.8200 c         1 MOL      0.470410
    105 O15         0.8460   -0.0510    1.0400 o         1 MOL     -0.434630
    106 C36         1.4760    0.6310    3.9790 c3        1 MOL      0.245277
    107 C37         0.7710   -0.5010    4.8180 c3        1 MOL     -0.087968
    108 C38         2.2870    1.6690    4.7800 c3        1 MOL     -0.296662
    109 C39        -0.4290   -0.1420    5.5820 c3        1 MOL     -0.124213
    110 H46         0.3410    3.4450    3.3010 hn        1 MOL      0.373311
    111 H47        -0.5210    1.5800    3.5810 h1        1 MOL      0.041100
    112 H48         2.1650    0.0400    3.3810 hc        1 MOL     -0.020789
    113 H49         1.4760   -0.9280    5.5210 hc        1 MOL      0.053177
    114 H50         0.5880   -1.3500    4.1660 hc        1 MOL      0.053177
    115 H51         1.6390    2.4130    5.2340 hc        1 MOL      0.081961
    116 H52         2.8400    1.2400    5.6180 hc        1 MOL      0.081961
    117 H53         2.9920    2.2320    4.1680 hc        1 MOL      0.081961
    118 H54        -0.2100    0.7660    6.1530 hc        1 MOL      0.028531
    119 H55        -1.2040    0.0610    4.8410 hc        1 MOL      0.028531
    120 H56        -0.7070   -0.9310    6.2760 hc        1 MOL      0.028531
    121 N11        -1.2570    0.0350    1.7100 n         1 MOL     -0.519437
    122 C40        -1.8400   -0.8970    0.7670 c3        1 MOL      0.143725
    123 C41        -3.3410   -0.6660    0.6130 c         1 MOL      0.570702
    124 O16        -4.1240   -1.1090    1.4710 o         1 MOL     -0.555017
    125 C42        -1.5930   -2.3120    1.2490 c3        1 MOL     -0.116750
    126 O17        -0.3280   -2.6360    0.8770 oh        1 MOL     -0.248909
    127 H57        -1.8880    0.3130    2.4440 hn        1 MOL      0.321768
    128 H58        -1.3990   -0.7910   -0.2260 h1        1 MOL      0.028657
    129 H59        -2.3030   -3.0100    0.8070 h1        1 MOL      0.078890
    130 H60        -1.6960   -2.2560    2.3300 h1        1 MOL      0.078890
    131 H61         0.2070   -1.8390    0.9600 ho        1 MOL      0.168615
    132 N12        -3.7940    0.0150   -0.4230 n         1 MOL     -0.593400
    133 C43        -5.2480    0.3000   -0.6740 c3        1 MOL      0.305623
    134 C44        -5.5000    0.5280   -2.1790 c         1 MOL      0.519988
    135 O18        -4.5350    0.8380   -2.8740 o         1 MOL     -0.552214
    136 C45        -5.5860    1.4750    0.1750 c3        1 MOL     -0.271201
    137 H62        -3.1370    0.1960   -1.1710 hn        1 MOL      0.279919
    138 H63        -5.8490   -0.5660   -0.3830 h1        1 MOL      0.026745
    139 H64        -5.1410    2.4000   -0.2140 hc        1 MOL      0.084174
    140 H65        -6.6620    1.5840    0.0690 hc        1 MOL      0.084174
    141 H66        -5.2510    1.2690    1.1950 hc        1 MOL      0.084174
    142 N13        -6.7030    0.2090   -2.7460 n         1 MOL     -0.565300
    143 C46        -7.8980   -0.1920   -1.9900 c3        1 MOL      0.212296
    144 C47        -8.9620    0.9150   -2.2620 c         1 MOL      0.510443
    145 O19        -8.8340    1.6830   -3.1730 o         1 MOL     -0.552516
    146 C48        -8.3840   -1.6050   -2.4450 c3        1 MOL     -0.389899
    147 H67        -6.7160    0.1620   -3.7580 hn        1 MOL      0.356971
    148 H68        -7.7420   -0.1910   -0.9050 h1        1 MOL      0.061784
    149 H69        -9.3840   -1.7900   -2.0730 hc        1 MOL      0.115862
    150 H70        -8.3540   -1.6530   -3.5270 hc        1 MOL      0.115862
    151 H71        -7.5930   -2.3220   -2.2150 hc        1 MOL      0.115862
    152 N14       -10.0530    0.9710   -1.5290 n         1 MOL     -0.343256
    153 C49       -10.3480    0.3220   -0.2450 c3        1 MOL     -0.320527
    154 C50        -9.8440    1.2760    0.9620 c         1 MOL      0.438137
    155 O20        -9.6100    0.7930    2.0750 o         1 MOL     -0.485925
    156 C51       -11.8780    0.1500   -0.0820 c3        1 MOL      0.167668
    157 C52       -12.3260   -1.0940   -0.7990 c3        1 MOL     -0.146390
    158 C53       -13.7600   -1.4750   -0.5440 c         1 MOL      0.623000
    159 O21       -14.6010   -1.3370   -1.5080 o         1 MOL     -0.652998
    160 O22       -14.0850   -1.7440    0.6520 o         1 MOL     -0.652998
    161 H72       -10.7380    1.6170   -1.8890 hn        1 MOL      0.293163
    162 H73        -9.8120   -0.6090   -0.1060 h1        1 MOL      0.160011
    163 H74       -12.4430    1.0320   -0.3720 hc        1 MOL      0.026963
    164 H75       -12.0480    0.0460    0.9930 hc        1 MOL      0.026963
    165 H76       -11.7580   -1.9910   -0.5880 hc        1 MOL      0.016755
    166 H77       -12.1210   -0.9400   -1.8530 hc        1 MOL      0.016755
    167 N15        -9.4720    2.5420    0.6900 n         1 MOL     -0.310314
    168 C54        -8.6870    3.3990    1.5800 c3        1 MOL     -0.032461
    169 H78        -9.1910    4.3580    1.6990 h1        1 MOL      0.056290
    170 H79        -8.5870    2.9180    2.5540 h1        1 MOL      0.056290
    171 H80        -7.6980    3.5600    1.1510 h1        1 MOL      0.056290
    172 H81        -9.6380    2.8840   -0.2470 hn        1 MOL      0.235903
    173 Ca1         2.6920    0.4810   -0.8620 Ca        1 MOL      1.736465
    174 O23         0.6250    2.1240   -1.0020 oh        1 MOL     -0.871197
    175 H82        -0.2960    1.8870   -0.9210 ho        1 MOL      0.428357
    176 H83         0.6320    2.8650   -1.6010 ho        1 MOL      0.428357
    177 O24         2.5440    2.0050   -3.1740 oh        1 MOL     -0.871197
    178 H84         3.1760    2.6570   -3.4780 ho        1 MOL      0.428357
    179 H85         2.0380    1.7810   -3.9510 ho        1 MOL      0.428357
    180 O25         0.5200   -0.4620   -2.0790 oh        1 MOL     -0.871197
    181 H86        -0.3690   -0.7260   -2.3410 ho        1 MOL      0.428357
    182 H87         1.0540   -0.6480   -2.8440 ho        1 MOL      0.428357
@<TRIPOS>BOND
     1    1    2 1   
     2    1    4 1   
     3    1    5 1   
     4    1    6 1   
     5    2    3 2   
     6    2    7 1   
     7    7    8 1   
     8    7   15 1   
     9    8    9 1   
    10    8   11 1   
    11    8   16 1   
    12    9   10 2   
    13    9   19 1   
    14   11   12 1   
    15   11   17 1   
    16   11   18 1   
    17   12   13 1   
    18   12   14 1   
    19   19   20 1   
    20   19   28 1   
    21   20   21 1   
    22   20   23 1   
    23   20   29 1   
    24   21   22 2   
    25   21   41 1   
    26   23   24 1   
    27   23   30 1   
    28   23   31 1   
    29   24   25 1   
    30   24   32 1   
    31   24   33 1   
    32   25   26 1   
    33   25   34 1   
    34   25   35 1   
    35   26   27 1   
    36   26   36 1   
    37   26   37 1   
    38   27   38 1   
    39   27   39 1   
    40   27   40 1   
    41   41   42 1   
    42   41   49 1   
    43   42   43 1   
    44   42   45 1   
    45   42   50 1   
    46   43   44 2   
    47   43   53 1   
    48   45   46 1   
    49   45   51 1   
    50   45   52 1   
    51   46   47 1   
    52   46   48 1   
    53   53   54 1   
    54   53   57 1   
    55   54   55 1   
    56   54   58 1   
    57   54   59 1   
    58   55   56 2   
    59   55   60 1   
    60   60   61 1   
    61   60   68 1   
    62   61   62 1   
    63   61   64 1   
    64   61   69 1   
    65   62   63 2   
    66   62   74 1   
    67   64   65 1   
    68   64   70 1   
    69   64   71 1   
    70   65   66 1   
    71   65   67 2   
    72   66   72 1   
    73   66   73 1   
    74   74   75 1   
    75   74   78 1   
    76   75   76 1   
    77   75   79 1   
    78   75   80 1   
    79   76   77 2   
    80   76   81 1   
    81   81   82 1   
    82   81   93 1   
    83   82   83 1   
    84   82   85 1   
    85   82   94 1   
    86   83   84 2   
    87   83  102 1   
    88   85   86 1   
    89   85   95 1   
    90   85   96 1   
    91   86   87 ar  
    92   86   88 ar  
    93   87   89 ar  
    94   87   97 1   
    95   88   90 ar  
    96   88   98 1   
    97   89   91 ar  
    98   89   99 1   
    99   90   91 ar  
   100   90  100 1   
   101   91   92 1   
   102   92  101 1   
   103  102  103 1   
   104  102  110 1   
   105  103  104 1   
   106  103  106 1   
   107  103  111 1   
   108  104  105 2   
   109  104  121 1   
   110  106  107 1   
   111  106  108 1   
   112  106  112 1   
   113  107  109 1   
   114  107  113 1   
   115  107  114 1   
   116  108  115 1   
   117  108  116 1   
   118  108  117 1   
   119  109  118 1   
   120  109  119 1   
   121  109  120 1   
   122  121  122 1   
   123  121  127 1   
   124  122  123 1   
   125  122  125 1   
   126  122  128 1   
   127  123  124 2   
   128  123  132 1   
   129  125  126 1   
   130  125  129 1   
   131  125  130 1   
   132  126  131 1   
   133  132  133 1   
   134  132  137 1   
   135  133  134 1   
   136  133  136 1   
   137  133  138 1   
   138  134  135 2   
   139  134  142 1   
   140  136  139 1   
   141  136  140 1   
   142  136  141 1   
   143  142  143 1   
   144  142  147 1   
   145  143  144 1   
   146  143  146 1   
   147  143  148 1   
   148  144  145 2   
   149  144  152 1   
   150  146  149 1   
   151  146  150 1   
   152  146  151 1   
   153  152  153 1   
   154  152  161 1   
   155  153  154 1   
   156  153  156 1   
   157  153  162 1   
   158  154  155 2   
   159  154  167 1   
   160  156  157 1   
   161  156  163 1   
   162  156  164 1   
   163  157  158 1   
   164  157  165 1   
   165  157  166 1   
   166  158  159 1   
   167  158  160 1   
   168  167  168 1   
   169  167  172 1   
   170  168  169 1   
   171  168  170 1   
   172  168  171 1   
   173  174  175 1   
   174  174  176 1   
   175  177  178 1   
   176  177  179 1   
   177  180  181 1   
   178  180  182 1   
@<TRIPOS>SUBSTRUCTURE
     1 MOL         1 TEMP              0 ****  ****    0 ROOT
