@<TRIPOS>MOLECULE
MOL
  178   175     1     0     0
SMALL
resp


@<TRIPOS>ATOM
      1 C1         -1.8030    6.6800    1.4250 c3        1 MOL     -0.377086
      2 C2         -3.2070    6.1790    0.9050 c         1 MOL      0.707878
      3 O1         -3.6630    6.5790   -0.1450 o         1 MOL     -0.594613
      4 H1         -1.3080    7.2520    0.6410 hc        1 MOL      0.092612
      5 H2         -1.9430    7.3120    2.3020 hc        1 MOL      0.092612
      6 H3         -1.1850    5.8210    1.6910 hc        1 MOL      0.092612
      7 N1         -4.0000    5.4790    1.6610 n         1 MOL     -0.582389
      8 C3         -5.2180    4.8030    1.1590 c3        1 MOL      0.264882
      9 C4         -4.9060    3.6660    0.1540 c         1 MOL      0.650931
     10 O2         -4.0400    2.7960    0.3930 o         1 MOL     -0.594894
     11 C5         -6.1200    4.2770    2.2940 c3        1 MOL     -0.346888
     12 C6         -7.5860    3.8410    2.1070 c         1 MOL      0.795949
     13 O3         -8.2250    4.4030    1.1830 o         1 MOL     -0.732167
     14 O4         -8.1990    3.0930    2.8380 o         1 MOL     -0.732167
     15 H4         -3.7890    5.4960    2.6430 hn        1 MOL      0.288921
     16 H5         -5.8890    5.4840    0.6390 h1        1 MOL      0.025885
     17 H6         -6.0860    5.0570    3.0430 hc        1 MOL      0.051578
     18 H7         -5.6050    3.4370    2.7620 hc        1 MOL      0.051578
     19 N2         -5.7410    3.6950   -0.9370 n         1 MOL     -0.758742
     20 C7         -5.8340    2.6880   -1.9820 c3        1 MOL      0.729881
     21 C8         -4.4140    2.4690   -2.6110 c         1 MOL      0.313525
     22 O5         -3.5990    3.4120   -2.6780 o         1 MOL     -0.500954
     23 C9         -6.9590    2.9990   -2.9700 c3        1 MOL     -0.476125
     24 H8         -6.4180    4.4400   -1.0090 hn        1 MOL      0.305836
     25 H9         -6.1820    1.7720   -1.5200 h1        1 MOL     -0.062706
     26 H10        -7.4560    2.0830   -3.2670 hc        1 MOL      0.117667
     27 H11        -7.7310    3.5930   -2.4870 hc        1 MOL      0.117667
     28 H12        -6.4930    3.5750   -3.7790 hc        1 MOL      0.117667
     29 N3         -4.0420    1.2520   -3.1700 n         1 MOL     -0.300319
     30 C10        -4.7870    0.0160   -3.4760 c3        1 MOL     -0.050283
     31 C11        -5.2940   -0.6210   -2.1930 c         1 MOL      0.287255
     32 O6         -4.8420   -0.3480   -1.0870 o         1 MOL     -0.225071
     33 C12        -3.8870   -0.8390   -4.3630 c3        1 MOL     -0.087144
     34 C13        -2.4130   -0.8460   -3.7770 c         1 MOL      0.667668
     35 O7         -1.4920   -0.1840   -4.2470 o         1 MOL     -0.669015
     36 O8         -2.1680   -1.5360   -2.7630 o         1 MOL     -0.669015
     37 H13        -3.0800    1.1930   -3.4930 hn        1 MOL      0.213191
     38 H14        -5.6460    0.3560   -4.0380 h1        1 MOL      0.028633
     39 H15        -3.7980   -0.4870   -5.3830 hc        1 MOL      0.043199
     40 H16        -4.2870   -1.8540   -4.4160 hc        1 MOL      0.043199
     41 N4         -6.2210   -1.4710   -2.4540 n         1 MOL     -0.372858
     42 C14        -6.8790   -2.1350   -1.3150 c3        1 MOL     -0.019758
     43 C15        -7.7780   -1.1430   -0.5710 c         1 MOL      0.538583
     44 O9         -8.3230   -0.1960   -1.0540 o         1 MOL     -0.530750
     45 H17        -6.4210   -1.7260   -3.4110 hn        1 MOL      0.323781
     46 H18        -6.1600   -2.5020   -0.5780 h1        1 MOL      0.073530
     47 H19        -7.5410   -2.9470   -1.6280 h1        1 MOL      0.073530
     48 N5         -7.8990   -1.2960    0.7220 n         1 MOL     -0.593809
     49 C16        -7.5290   -2.4220    1.6050 c3        1 MOL      0.431807
     50 C17        -6.1660   -2.1680    2.2770 c         1 MOL      0.398861
     51 O10        -5.8810   -3.0000    3.1770 o         1 MOL     -0.490032
     52 C18        -8.5480   -2.6690    2.6980 c3        1 MOL     -0.633915
     53 C19        -8.6560   -4.0720    3.4200 c         1 MOL      0.748470
     54 N6         -8.8450   -5.1860    2.7520 n         1 MOL     -0.802402
     55 O11        -8.5650   -4.2650    4.6340 o         1 MOL     -0.549477
     56 H20        -8.4370   -0.5640    1.1660 hn        1 MOL      0.376626
     57 H21        -7.3470   -3.3310    1.0380 h1        1 MOL     -0.035856
     58 H22        -9.5400   -2.5420    2.2690 hc        1 MOL      0.172269
     59 H23        -8.4750   -1.9650    3.5300 hc        1 MOL      0.172269
     60 H24        -8.8630   -5.1750    1.7390 hn        1 MOL      0.354729
     61 H25        -8.8930   -6.0990    3.1750 hn        1 MOL      0.354729
     62 N7         -5.3710   -1.1850    1.7990 n         1 MOL     -0.216330
     63 C20        -4.1140   -0.7090    2.3100 c3        1 MOL     -0.195907
     64 C21        -2.9520   -1.6930    2.0310 c         1 MOL      0.506334
     65 O12        -1.9940   -1.7360    2.8010 o         1 MOL     -0.537502
     66 H26        -5.6510   -0.8610    0.8870 hn        1 MOL      0.117042
     67 H27        -4.2230   -0.6500    3.3870 h1        1 MOL      0.126720
     68 H28        -3.9430    0.2580    1.8300 h1        1 MOL      0.126720
     69 N8         -3.0540   -2.5280    0.9710 n         1 MOL     -0.146192
     70 C22        -2.0660   -3.5150    0.6430 c3        1 MOL     -0.401601
     71 C23        -0.7380   -2.8410    0.3290 c         1 MOL      1.106703
     72 O13        -0.6200   -1.8540   -0.4000 o         1 MOL     -0.901508
     73 C24        -2.4460   -4.3900   -0.5740 c3        1 MOL      0.418662
     74 C25        -3.4470   -5.4310   -0.1720 c3        1 MOL     -0.371909
     75 O14        -2.9900   -3.7570   -1.6480 oh        1 MOL     -0.562960
     76 H29        -3.7160   -2.2580    0.2530 hn        1 MOL      0.148681
     77 H30        -1.8630   -4.1160    1.5250 h1        1 MOL      0.129596
     78 H31        -1.5000   -4.8470   -0.8630 h1        1 MOL      0.001260
     79 H32        -2.4090   -3.0550   -1.9510 ho        1 MOL      0.362808
     80 H33        -3.4270   -6.2650   -0.8750 hc        1 MOL      0.084143
     81 H34        -3.1540   -5.8530    0.7860 hc        1 MOL      0.084143
     82 H35        -4.4240   -4.9730   -0.0320 hc        1 MOL      0.084143
     83 N9          0.3740   -3.3350    0.8840 n         1 MOL     -0.664466
     84 C26         1.7070   -2.6440    0.9690 c3        1 MOL     -0.184720
     85 C27         2.5730   -3.0510   -0.2660 c         1 MOL      0.762873
     86 O15         2.5810   -4.2400   -0.5150 o         1 MOL     -0.565565
     87 C28         2.4080   -2.9680    2.3240 c3        1 MOL      0.122243
     88 C29         3.8210   -2.4210    2.3410 c3        1 MOL      0.070204
     89 C30         1.5810   -2.4400    3.4730 c3        1 MOL     -0.159297
     90 C31         4.6170   -3.1940    3.3970 c3        1 MOL     -0.268227
     91 H36         0.3220   -4.2320    1.3570 hn        1 MOL      0.294018
     92 H37         1.5150   -1.5620    0.9580 h1        1 MOL      0.219149
     93 H38         2.4290   -4.0500    2.4500 hc        1 MOL      0.031272
     94 H39         3.8580   -1.3840    2.6880 hc        1 MOL      0.016792
     95 H40         4.2850   -2.5040    1.3630 hc        1 MOL      0.016792
     96 H41         1.6020   -1.3450    3.4500 hc        1 MOL      0.042255
     97 H42         0.5430   -2.7800    3.5140 hc        1 MOL      0.042255
     98 H43         2.0080   -2.7670    4.4170 hc        1 MOL      0.042255
     99 H44         5.6180   -2.7700    3.4530 hc        1 MOL      0.047054
    100 H45         4.1510   -2.9600    4.3620 hc        1 MOL      0.047054
    101 H46         4.7040   -4.2400    3.1010 hc        1 MOL      0.047054
    102 N10         3.2470   -2.1400   -1.0110 n         1 MOL     -0.524201
    103 C32         4.1790   -2.5170   -2.0910 c3        1 MOL     -0.019771
    104 C33         5.6140   -2.0780   -1.7800 c         1 MOL      0.584337
    105 O16         6.5030   -2.4390   -2.5700 o         1 MOL     -0.580134
    106 C34         3.6930   -1.9740   -3.4480 c3        1 MOL      0.043831
    107 C35         2.1850   -2.2860   -3.6740 c         1 MOL      0.621468
    108 O17         1.9520   -3.4020   -4.2350 o         1 MOL     -0.666236
    109 O18         1.3460   -1.3810   -3.4340 o         1 MOL     -0.666236
    110 H47         3.4220   -1.1980   -0.6760 hn        1 MOL      0.178986
    111 H48         4.2220   -3.6080   -2.0710 h1        1 MOL      0.088165
    112 H49         4.3010   -2.3380   -4.2720 hc        1 MOL     -0.018743
    113 H50         3.9180   -0.9100   -3.4430 hc        1 MOL     -0.018743
    114 N11         5.9320   -1.2540   -0.7530 n         1 MOL     -0.549970
    115 C36         7.2580   -0.6320   -0.5420 c3        1 MOL      0.584948
    116 C37         7.2980    0.8730   -0.3650 c         1 MOL      0.206960
    117 O19         7.8190    1.3060    0.7050 o         1 MOL     -0.503191
    118 C38         8.1270   -1.4190    0.5000 c3        1 MOL     -0.406637
    119 C39         9.6620   -1.4320    0.4510 ca        1 MOL      0.151210
    120 C40        10.3350   -2.0210    1.5030 ca        1 MOL     -0.112296
    121 C41        10.3550   -0.8670   -0.6340 ca        1 MOL     -0.112296
    122 C42        11.7630   -2.0170    1.5560 ca        1 MOL     -0.180361
    123 C43        11.7600   -0.8750   -0.6450 ca        1 MOL     -0.180361
    124 C44        12.4230   -1.3800    0.5050 ca        1 MOL     -0.088364
    125 H51         5.2210   -0.8170   -0.1880 hn        1 MOL      0.218617
    126 H52         7.7500   -0.7610   -1.5030 h1        1 MOL     -0.024303
    127 H53         7.9070   -2.4740    0.3280 hc        1 MOL      0.112799
    128 H54         7.7500   -1.1570    1.4870 hc        1 MOL      0.112799
    129 H55         9.7520   -2.4250    2.3110 ha        1 MOL      0.102271
    130 H56         9.8090   -0.5240   -1.5070 ha        1 MOL      0.102271
    131 H57        12.2580   -2.3570    2.4490 ha        1 MOL      0.125459
    132 H58        12.3760   -0.4580   -1.4250 ha        1 MOL      0.125459
    133 H59        13.4880   -1.2970    0.6610 ha        1 MOL      0.083334
    134 N12         6.6000    1.6900   -1.2380 n         1 MOL     -0.117353
    135 C45         6.3500    3.1530   -0.9600 c3        1 MOL     -0.052821
    136 C46         5.7970    3.4480    0.4840 c         1 MOL      0.268502
    137 O20         5.8400    4.6040    0.8160 o         1 MOL     -0.501251
    138 C47         5.3440    3.5310   -2.0530 c3        1 MOL      0.103431
    139 C48         5.5330    2.5230   -3.1600 c3        1 MOL     -0.170293
    140 C49         5.7970    1.2510   -2.3280 c3        1 MOL     -0.232185
    141 H60         7.2850    3.6960   -1.1020 h1        1 MOL      0.116382
    142 H61         4.3360    3.3580   -1.6920 hc        1 MOL      0.008914
    143 H62         5.4460    4.5650   -2.3840 hc        1 MOL      0.008914
    144 H63         4.6280    2.4650   -3.7570 hc        1 MOL      0.065582
    145 H64         6.3980    2.8590   -3.7330 hc        1 MOL      0.065582
    146 H65         4.8540    0.8750   -1.9430 h1        1 MOL      0.172716
    147 H66         6.1870    0.4580   -2.9720 h1        1 MOL      0.172716
    148 N13         5.3050    2.4990    1.2750 n         1 MOL      0.065227
    149 C50         4.6780    2.8510    2.5530 c3        1 MOL     -0.266339
    150 C51         5.7730    2.8580    3.6650 c         1 MOL      0.508529
    151 O21         5.7950    3.7800    4.5310 o         1 MOL     -0.549458
    152 C52         3.5730    1.7430    2.9500 c3        1 MOL      0.114326
    153 C53         2.3310    1.5820    2.0540 c3        1 MOL     -0.118598
    154 C54         2.5830    0.9270    0.6510 c         1 MOL      0.891039
    155 O22         1.6370    0.8300   -0.1380 o         1 MOL     -0.838011
    156 O23         3.6870    0.3370    0.3770 o         1 MOL     -0.838011
    157 H67         5.1880    1.5570    0.9150 hn        1 MOL      0.218849
    158 H68         4.2490    3.8510    2.5010 h1        1 MOL      0.133314
    159 H69         3.2580    2.0100    3.9650 hc        1 MOL     -0.022194
    160 H70         4.0970    0.7990    3.0400 hc        1 MOL     -0.022194
    161 H71         1.9010    2.5750    1.9190 hc        1 MOL      0.023461
    162 H72         1.5770    0.9130    2.4670 hc        1 MOL      0.023461
    163 N14         6.7580    1.9520    3.5540 n         1 MOL     -0.222589
    164 C55         7.9300    1.9370    4.3980 c3        1 MOL     -0.216563
    165 H73         8.7420    2.4690    3.9010 h1        1 MOL      0.091783
    166 H74         7.7020    2.4270    5.3460 h1        1 MOL      0.091783
    167 H75         8.2320    0.9070    4.5850 h1        1 MOL      0.091783
    168 H76         6.7850    1.2790    2.8040 hn        1 MOL      0.227669
    169 Ca1        -0.1190    0.0640   -1.8800 Ca        1 MOL      1.803877
    170 O24        -2.3860    0.8140   -0.4950 oh        1 MOL     -0.839414
    171 H77        -2.7310    1.5430    0.0210 ho        1 MOL      0.395595
    172 H78        -3.1480    0.2710   -0.6750 ho        1 MOL      0.395595
    173 O25        -1.0950    2.4160   -2.7880 oh        1 MOL     -0.839414
    174 H79        -1.9050    2.9240   -2.7190 ho        1 MOL      0.395595
    175 H80        -0.4080    3.0760   -2.8680 ho        1 MOL      0.395595
    176 O26         1.5670    1.7590   -3.1040 oh        1 MOL     -0.839414
    177 H81         2.0700    2.4860   -2.7390 ho        1 MOL      0.395595
    178 H82         1.0650    2.1520   -3.8260 ho        1 MOL      0.395595
@<TRIPOS>BOND
     1    1    2 1   
     2    1    4 1   
     3    1    5 1   
     4    1    6 1   
     5    2    3 2   
     6    2    7 1   
     7    7    8 1   
     8    7   15 1   
     9    8    9 1   
    10    8   11 1   
    11    8   16 1   
    12    9   10 2   
    13    9   19 1   
    14   11   12 1   
    15   11   17 1   
    16   11   18 1   
    17   12   13 1   
    18   12   14 1   
    19   19   20 1   
    20   19   24 1   
    21   20   21 1   
    22   20   23 1   
    23   20   25 1   
    24   21   22 2   
    25   21   29 1   
    26   23   26 1   
    27   23   27 1   
    28   23   28 1   
    29   29   30 1   
    30   29   37 1   
    31   30   31 1   
    32   30   33 1   
    33   30   38 1   
    34   31   32 2   
    35   31   41 1   
    36   33   34 1   
    37   33   39 1   
    38   33   40 1   
    39   34   35 1   
    40   34   36 1   
    41   41   42 1   
    42   41   45 1   
    43   42   43 1   
    44   42   46 1   
    45   42   47 1   
    46   43   44 2   
    47   43   48 1   
    48   48   49 1   
    49   48   56 1   
    50   49   50 1   
    51   49   52 1   
    52   49   57 1   
    53   50   51 2   
    54   50   62 1   
    55   52   53 1   
    56   52   58 1   
    57   52   59 1   
    58   53   54 1   
    59   53   55 2   
    60   54   60 1   
    61   54   61 1   
    62   62   63 1   
    63   62   66 1   
    64   63   64 1   
    65   63   67 1   
    66   63   68 1   
    67   64   65 2   
    68   64   69 1   
    69   69   70 1   
    70   69   76 1   
    71   70   71 1   
    72   70   73 1   
    73   70   77 1   
    74   71   72 2   
    75   71   83 1   
    76   73   74 1   
    77   73   75 1   
    78   73   78 1   
    79   74   80 1   
    80   74   81 1   
    81   74   82 1   
    82   75   79 1   
    83   83   84 1   
    84   83   91 1   
    85   84   85 1   
    86   84   87 1   
    87   84   92 1   
    88   85   86 2   
    89   85  102 1   
    90   87   88 1   
    91   87   89 1   
    92   87   93 1   
    93   88   90 1   
    94   88   94 1   
    95   88   95 1   
    96   89   96 1   
    97   89   97 1   
    98   89   98 1   
    99   90   99 1   
   100   90  100 1   
   101   90  101 1   
   102  102  103 1   
   103  102  110 1   
   104  103  104 1   
   105  103  106 1   
   106  103  111 1   
   107  104  105 2   
   108  104  114 1   
   109  106  107 1   
   110  106  112 1   
   111  106  113 1   
   112  107  108 1   
   113  107  109 1   
   114  114  115 1   
   115  114  125 1   
   116  115  116 1   
   117  115  118 1   
   118  115  126 1   
   119  116  117 2   
   120  116  134 1   
   121  118  119 1   
   122  118  127 1   
   123  118  128 1   
   124  119  120 ar  
   125  119  121 ar  
   126  120  122 ar  
   127  120  129 1   
   128  121  123 ar  
   129  121  130 1   
   130  122  124 ar  
   131  122  131 1   
   132  123  124 ar  
   133  123  132 1   
   134  124  133 1   
   135  134  135 1   
   136  134  140 1   
   137  135  136 1   
   138  135  138 1   
   139  135  141 1   
   140  136  137 2   
   141  136  148 1   
   142  138  139 1   
   143  138  142 1   
   144  138  143 1   
   145  139  140 1   
   146  139  144 1   
   147  139  145 1   
   148  140  146 1   
   149  140  147 1   
   150  148  149 1   
   151  148  157 1   
   152  149  150 1   
   153  149  152 1   
   154  149  158 1   
   155  150  151 2   
   156  150  163 1   
   157  152  153 1   
   158  152  159 1   
   159  152  160 1   
   160  153  154 1   
   161  153  161 1   
   162  153  162 1   
   163  154  155 1   
   164  154  156 1   
   165  163  164 1   
   166  163  168 1   
   167  164  165 1   
   168  164  166 1   
   169  164  167 1   
   170  170  171 1   
   171  170  172 1   
   172  173  174 1   
   173  173  175 1   
   174  176  177 1   
   175  176  178 1   
@<TRIPOS>SUBSTRUCTURE
     1 MOL         1 TEMP              0 ****  ****    0 ROOT
