@<TRIPOS>MOLECULE
MOL
  198   191     1     0     0
SMALL
resp


@<TRIPOS>ATOM
      1 C1          3.2350    6.1840   -0.3930 c3        1 MOL     -0.380304
      2 C2          4.7900    6.1990   -0.4660 c         1 MOL      0.691820
      3 O1          5.5160    6.9910    0.1020 o         1 MOL     -0.555724
      4 H1          2.9140    6.5540    0.5800 hc        1 MOL      0.099198
      5 H2          2.8270    6.8240   -1.1770 hc        1 MOL      0.099198
      6 H3          2.8730    5.1650   -0.5310 hc        1 MOL      0.099198
      7 N1          5.3160    5.2190   -1.2440 n         1 MOL     -0.652823
      8 C3          6.6970    4.9020   -1.4640 c3        1 MOL      0.448640
      9 C4          7.4550    4.1690   -0.2620 c         1 MOL      0.455070
     10 O2          6.8560    3.9820    0.8250 o         1 MOL     -0.535016
     11 C5          7.4580    6.1180   -2.0550 c3        1 MOL     -0.395832
     12 C6          8.8610    5.7750   -2.6310 c         1 MOL      0.781593
     13 O3          9.0160    4.7080   -3.1950 o         1 MOL     -0.734980
     14 O4          9.8280    6.4940   -2.3250 o         1 MOL     -0.734980
     15 H4          4.6370    4.5750   -1.6320 hn        1 MOL      0.309505
     16 H5          6.7480    4.1200   -2.2310 h1        1 MOL     -0.043136
     17 H6          7.5830    6.9230   -1.3340 hc        1 MOL      0.082590
     18 H7          6.8480    6.5200   -2.8690 hc        1 MOL      0.082590
     19 N2          8.6320    3.6560   -0.5960 n         1 MOL     -0.459519
     20 C7          9.4900    2.8180    0.2260 c3        1 MOL     -0.031320
     21 C8          8.9540    1.4430    0.6790 c         1 MOL      0.461997
     22 O5          9.7560    0.5070    0.9510 o         1 MOL     -0.564508
     23 C9         10.1370    3.6420    1.3370 c3        1 MOL      0.054811
     24 C10        11.1620    4.6700    0.9160 c3        1 MOL      0.433548
     25 C11        11.5150    5.5100    2.1300 c3        1 MOL     -0.410110
     26 C12        12.4890    6.6600    1.7540 c3        1 MOL      0.071739
     27 N3         13.7720    6.2390    1.0780 n4        1 MOL     -0.521069
     28 H8          8.9070    3.9110   -1.5350 hn        1 MOL      0.311617
     29 H9         10.3450    2.5640   -0.4100 h1        1 MOL      0.083040
     30 H10        10.7610    2.9530    1.9030 hc        1 MOL     -0.013015
     31 H11         9.3900    3.9060    2.0860 hc        1 MOL     -0.013015
     32 H12        10.6890    5.3200    0.1750 hc        1 MOL     -0.095008
     33 H13        12.0600    4.1870    0.5310 hc        1 MOL     -0.095008
     34 H14        11.9460    4.8440    2.8760 hc        1 MOL      0.126878
     35 H15        10.5810    5.9950    2.4290 hc        1 MOL      0.126878
     36 H16        12.6410    7.2630    2.6400 hx        1 MOL      0.113853
     37 H17        12.0220    7.4200    1.1390 hx        1 MOL      0.113853
     38 H18        14.3270    7.0410    0.8380 hn        1 MOL      0.365585
     39 H19        14.3260    5.6340    1.6730 hn        1 MOL      0.365585
     40 H20        13.4860    5.6640    0.2950 hn        1 MOL      0.365585
     41 N4          7.6070    1.2570    0.6910 n         1 MOL     -0.327207
     42 C13         6.9390   -0.0040    0.6980 c3        1 MOL      0.428055
     43 C14         6.2150   -0.1880   -0.5970 c         1 MOL      0.254213
     44 O6          5.1680    0.3880   -0.7780 o         1 MOL     -0.497960
     45 C15         5.9660    0.0360    1.9230 c3        1 MOL     -0.553225
     46 C16         5.1630   -1.2100    2.0290 c         1 MOL      0.821405
     47 O7          5.7470   -2.3600    2.0270 o         1 MOL     -0.730579
     48 O8          3.9140   -1.1510    2.1430 o         1 MOL     -0.730579
     49 H21         7.0170    2.0670    0.6090 hn        1 MOL      0.213980
     50 H22         7.6490   -0.7960    0.9100 h1        1 MOL      0.025788
     51 H23         5.3250    0.9180    1.9810 hc        1 MOL      0.134842
     52 H24         6.7380    0.0220    2.7000 hc        1 MOL      0.134842
     53 N5          6.6440   -1.0610   -1.5110 n         1 MOL     -0.272134
     54 C17         7.8650   -1.9020   -1.5100 c3        1 MOL     -0.162682
     55 C18         7.3960   -3.3750   -1.6210 c         1 MOL      0.587960
     56 O9          7.9950   -4.0260   -2.4680 o         1 MOL     -0.577443
     57 H25         6.1100   -0.9930   -2.3700 hn        1 MOL      0.278839
     58 H26         8.4410   -1.9420   -0.5880 h1        1 MOL      0.109633
     59 H27         8.5550   -1.6230   -2.2970 h1        1 MOL      0.109633
     60 N6          6.2700   -3.8470   -1.0330 n         1 MOL     -0.234186
     61 C19         5.6790   -5.1500   -1.1520 c3        1 MOL      0.004352
     62 C20         4.1640   -4.9740   -0.8370 c         1 MOL      0.320028
     63 O10         3.7920   -4.0090   -0.1420 o         1 MOL     -0.546763
     64 C21         6.2200   -6.2300   -0.2010 c3        1 MOL     -0.015200
     65 C22         6.3860   -5.6780    1.2600 c         1 MOL      0.575955
     66 O11         5.3930   -5.4220    1.9370 o         1 MOL     -0.655779
     67 O12         7.4810   -5.2950    1.6010 o         1 MOL     -0.655779
     68 H28         5.7310   -3.2470   -0.4270 hn        1 MOL      0.193264
     69 H29         5.7890   -5.5490   -2.1630 h1        1 MOL      0.046645
     70 H30         7.1220   -6.7230   -0.5550 hc        1 MOL     -0.007693
     71 H31         5.4490   -6.9830   -0.0630 hc        1 MOL     -0.007693
     72 N7          3.3410   -5.8200   -1.3960 n         1 MOL     -0.244202
     73 C23         1.9010   -5.9900   -1.1620 c3        1 MOL      0.015608
     74 C24         1.0170   -4.8980   -1.6930 c         1 MOL      0.422333
     75 O13        -0.1590   -5.1830   -1.8430 o         1 MOL     -0.529979
     76 H32         3.7500   -6.4470   -2.0730 hn        1 MOL      0.249151
     77 H33         1.6980   -6.1500   -0.1010 h1        1 MOL      0.052358
     78 H34         1.5060   -6.9380   -1.5310 h1        1 MOL      0.052358
     79 N8          1.5970   -3.7600   -2.1240 n         1 MOL     -0.276855
     80 C25         0.8820   -2.6130   -2.7270 c3        1 MOL     -0.034243
     81 C26        -0.0350   -1.8790   -1.7150 c         1 MOL      0.574916
     82 O14        -0.1950   -2.2280   -0.5890 o         1 MOL     -0.498373
     83 C27         1.9860   -1.6730   -3.2730 c3        1 MOL      0.120616
     84 C28         2.7890   -0.9370   -2.1750 c3        1 MOL     -0.271755
     85 O15         3.0340   -2.3740   -3.9870 oh        1 MOL     -0.574715
     86 H35         2.6030   -3.6730   -2.0450 hn        1 MOL      0.207284
     87 H36         0.2470   -2.8670   -3.5790 h1        1 MOL      0.077663
     88 H37         1.6080   -0.9350   -3.9840 h1        1 MOL      0.052577
     89 H38         2.6680   -2.5790   -4.8460 ho        1 MOL      0.387145
     90 H39         3.5240   -0.2500   -2.6010 hc        1 MOL      0.123870
     91 H40         2.1060   -0.3000   -1.6180 hc        1 MOL      0.123870
     92 H41         3.3640   -1.6940   -1.6530 hc        1 MOL      0.123870
     93 N9         -0.6510   -0.8020   -2.1090 n         1 MOL     -0.382077
     94 C29        -1.1280    0.2560   -1.1660 c3        1 MOL     -0.590833
     95 C30        -2.4990   -0.0220   -0.4710 c         1 MOL      0.700448
     96 O16        -3.0560    0.7930    0.2780 o         1 MOL     -0.553979
     97 C31        -1.1900    1.6890   -1.8000 c3        1 MOL      0.408379
     98 C32        -2.3700    1.7330   -2.7890 c3        1 MOL      0.015477
     99 C33         0.1170    2.1300   -2.5300 c3        1 MOL     -0.339192
    100 C34        -2.6850    3.1050   -3.4880 c3        1 MOL     -0.340217
    101 H42        -0.5410   -0.5490   -3.0800 hn        1 MOL      0.261967
    102 H43        -0.3930    0.3010   -0.3660 h1        1 MOL      0.254999
    103 H44        -1.4220    2.3840   -0.9950 hc        1 MOL     -0.008771
    104 H45        -3.2770    1.4590   -2.2550 hc        1 MOL      0.033833
    105 H46        -2.0610    1.0540   -3.5870 hc        1 MOL      0.033833
    106 H47        -0.0470    3.1490   -2.8660 hc        1 MOL      0.072989
    107 H48         0.9580    2.1770   -1.8460 hc        1 MOL      0.072989
    108 H49         0.2880    1.4420   -3.3530 hc        1 MOL      0.072989
    109 H50        -1.8840    3.5270   -4.0850 hc        1 MOL      0.087869
    110 H51        -3.6550    3.0760   -3.9840 hc        1 MOL      0.087869
    111 H52        -2.7840    3.8790   -2.7180 hc        1 MOL      0.087869
    112 N10        -3.0510   -1.2090   -0.7770 n         1 MOL     -0.512603
    113 C35        -4.3540   -1.7020   -0.3280 c3        1 MOL      0.071960
    114 C36        -5.2490   -1.6410   -1.5540 c         1 MOL      0.664750
    115 O17        -4.8110   -1.9120   -2.6430 o         1 MOL     -0.568448
    116 C37        -4.1710   -3.0730    0.1340 c3        1 MOL      0.402592
    117 C38        -3.6100   -3.0500    1.5310 c3        1 MOL     -0.454944
    118 O18        -5.3850   -3.7270    0.2170 oh        1 MOL     -0.673354
    119 H53        -2.5100   -1.8950   -1.2950 hn        1 MOL      0.268633
    120 H54        -4.7710   -1.0950    0.4710 h1        1 MOL      0.052989
    121 H55        -3.5540   -3.5820   -0.5980 h1        1 MOL      0.075036
    122 H56        -5.9150   -3.4860    0.9770 ho        1 MOL      0.413361
    123 H57        -2.7070   -2.4540    1.6570 hc        1 MOL      0.108715
    124 H58        -4.3880   -2.7100    2.2120 hc        1 MOL      0.108715
    125 H59        -3.3960   -4.0600    1.8860 hc        1 MOL      0.108715
    126 N11        -6.5540   -1.3680   -1.3520 n         1 MOL     -0.593113
    127 C39        -7.5460   -0.8600   -2.2970 c3        1 MOL      0.043165
    128 C40        -8.5420    0.0850   -1.7560 c         1 MOL      0.650497
    129 O19        -8.8940    1.0320   -2.4080 o         1 MOL     -0.582582
    130 C41        -8.1860   -2.0730   -3.0260 c3        1 MOL      0.316750
    131 C42        -9.1510   -1.6050   -4.0790 c3        1 MOL     -0.359891
    132 O20        -8.8610   -2.7330   -2.0130 oh        1 MOL     -0.626578
    133 H60        -6.7600   -1.1300   -0.4010 hn        1 MOL      0.238851
    134 H61        -7.0940   -0.2830   -3.1110 h1        1 MOL      0.069365
    135 H62        -7.4240   -2.6580   -3.5230 h1        1 MOL      0.057266
    136 H63        -8.5920   -3.6340   -2.1870 ho        1 MOL      0.391603
    137 H64       -10.1450   -1.3550   -3.6840 hc        1 MOL      0.088890
    138 H65        -8.7420   -0.7600   -4.6370 hc        1 MOL      0.088890
    139 H66        -9.2190   -2.4200   -4.7950 hc        1 MOL      0.088890
    140 N12        -9.1020   -0.0660   -0.5610 n         1 MOL     -0.525101
    141 C43       -10.2740    0.7130   -0.0960 c3        1 MOL      0.414612
    142 C44       -10.0760    1.2640    1.2990 c         1 MOL      0.175715
    143 O21        -9.3010    0.7320    2.1140 o         1 MOL     -0.513507
    144 C45       -11.5110   -0.2920   -0.0950 c3        1 MOL     -0.293402
    145 C46       -12.8480    0.4460   -0.1150 c3        1 MOL      0.258210
    146 C47       -14.0090   -0.5460   -0.0210 c3        1 MOL     -0.174209
    147 C48       -15.3810    0.0900   -0.3350 c3        1 MOL     -0.046466
    148 N13       -16.4110   -0.9650   -0.5050 n4        1 MOL     -0.199780
    149 H67        -8.9300   -0.9270   -0.0550 hn        1 MOL      0.299242
    150 H68       -10.4480    1.5170   -0.8110 h1        1 MOL      0.041222
    151 H69       -11.4340   -1.0660    0.6710 hc        1 MOL      0.064666
    152 H70       -11.4000   -0.8130   -1.0480 hc        1 MOL      0.064666
    153 H71       -12.9200    1.0210   -1.0460 hc        1 MOL     -0.024410
    154 H72       -12.9100    1.1710    0.6990 hc        1 MOL     -0.024410
    155 H73       -14.0060   -0.8680    1.0250 hc        1 MOL      0.053434
    156 H74       -13.8680   -1.3160   -0.7760 hc        1 MOL      0.053434
    157 H75       -15.3080    0.6430   -1.2680 hx        1 MOL      0.118340
    158 H76       -15.6220    0.7180    0.5260 hx        1 MOL      0.118340
    159 H77       -16.7140   -1.4650    0.3220 hn        1 MOL      0.282127
    160 H78       -17.3110   -0.6490   -0.8190 hn        1 MOL      0.282127
    161 H79       -16.0660   -1.7090   -1.1020 hn        1 MOL      0.282127
    162 N14       -10.6710    2.4360    1.6370 n         1 MOL     -0.010216
    163 C49       -10.5880    3.0430    2.9550 c3        1 MOL      0.208993
    164 C50        -9.2550    3.6100    3.3540 c         1 MOL      0.337074
    165 O22        -8.9970    3.6860    4.5570 o         1 MOL     -0.537328
    166 C51       -11.6500    4.1070    3.2010 c3        1 MOL     -0.145640
    167 C52       -13.0710    3.6860    2.7550 c3        1 MOL      0.000469
    168 C53       -13.3660    4.2300    1.3120 c         1 MOL      0.489762
    169 O23       -12.7720    3.7120    0.3230 o         1 MOL     -0.625626
    170 O24       -14.0280    5.2840    1.1250 o         1 MOL     -0.625626
    171 H80       -11.3020    2.8320    0.9560 hn        1 MOL      0.084101
    172 H81       -10.8680    2.3060    3.7110 h1        1 MOL      0.001621
    173 H82       -11.3830    5.0920    2.8250 hc        1 MOL      0.075397
    174 H83       -11.8130    4.2260    4.2780 hc        1 MOL      0.075397
    175 H84       -13.8320    4.0500    3.4480 hc        1 MOL     -0.020592
    176 H85       -13.2130    2.6100    2.8690 hc        1 MOL     -0.020592
    177 N15        -8.3400    4.1380    2.4850 n         1 MOL     -0.357506
    178 C54        -8.4600    4.4390    1.0400 c3        1 MOL     -0.013429
    179 H86        -7.5360    4.1590    0.5340 h1        1 MOL      0.045685
    180 H87        -9.2900    3.8730    0.6180 h1        1 MOL      0.045685
    181 H88        -8.6390    5.5050    0.9040 h1        1 MOL      0.045685
    182 H89        -7.6780    4.7450    2.9550 hn        1 MOL      0.280781
    183 Ca1         3.8180   -3.7570    2.9490 Ca        1 MOL      1.746757
    184 O25         1.4360   -3.0000    1.8270 oh        1 MOL     -0.813222
    185 H90         0.6770   -2.5200    2.1710 ho        1 MOL      0.403669
    186 H91         1.0960   -3.4680    1.0640 ho        1 MOL      0.403669
    187 O26         1.8050   -3.6970    4.7900 oh        1 MOL     -0.813222
    188 H92         1.8380   -3.9840    5.7030 ho        1 MOL      0.403669
    189 H93         0.9250   -3.9110    4.4950 ho        1 MOL      0.403669
    190 O27         4.5170   -5.0620    5.3220 oh        1 MOL     -0.813222
    191 H94         5.3960   -4.9100    5.6770 ho        1 MOL      0.403669
    192 H95         3.9470   -5.0410    6.0910 ho        1 MOL      0.403669
    193 O28         5.0390   -2.4210    5.0300 oh        1 MOL     -0.813222
    194 H96         5.8860   -2.6650    5.4090 ho        1 MOL      0.403669
    195 H97         4.7240   -1.7040    5.5760 ho        1 MOL      0.403669
    196 O29         2.1800   -5.7700    2.9430 oh        1 MOL     -0.813222
    197 H98         1.2310   -5.6400    3.0100 ho        1 MOL      0.403669
    198 H99         2.2970   -6.7170    2.9570 ho        1 MOL      0.403669
@<TRIPOS>BOND
     1    1    2 1   
     2    1    4 1   
     3    1    5 1   
     4    1    6 1   
     5    2    3 2   
     6    2    7 1   
     7    7    8 1   
     8    7   15 1   
     9    8    9 1   
    10    8   11 1   
    11    8   16 1   
    12    9   10 2   
    13    9   19 1   
    14   11   12 1   
    15   11   17 1   
    16   11   18 1   
    17   12   13 1   
    18   12   14 1   
    19   19   20 1   
    20   19   28 1   
    21   20   21 1   
    22   20   23 1   
    23   20   29 1   
    24   21   22 2   
    25   21   41 1   
    26   23   24 1   
    27   23   30 1   
    28   23   31 1   
    29   24   25 1   
    30   24   32 1   
    31   24   33 1   
    32   25   26 1   
    33   25   34 1   
    34   25   35 1   
    35   26   27 1   
    36   26   36 1   
    37   26   37 1   
    38   27   38 1   
    39   27   39 1   
    40   27   40 1   
    41   41   42 1   
    42   41   49 1   
    43   42   43 1   
    44   42   45 1   
    45   42   50 1   
    46   43   44 2   
    47   43   53 1   
    48   45   46 1   
    49   45   51 1   
    50   45   52 1   
    51   46   47 1   
    52   46   48 1   
    53   53   54 1   
    54   53   57 1   
    55   54   55 1   
    56   54   58 1   
    57   54   59 1   
    58   55   56 2   
    59   55   60 1   
    60   60   61 1   
    61   60   68 1   
    62   61   62 1   
    63   61   64 1   
    64   61   69 1   
    65   62   63 2   
    66   62   72 1   
    67   64   65 1   
    68   64   70 1   
    69   64   71 1   
    70   65   66 1   
    71   65   67 1   
    72   72   73 1   
    73   72   76 1   
    74   73   74 1   
    75   73   77 1   
    76   73   78 1   
    77   74   75 2   
    78   74   79 1   
    79   79   80 1   
    80   79   86 1   
    81   80   81 1   
    82   80   83 1   
    83   80   87 1   
    84   81   82 2   
    85   81   93 1   
    86   83   84 1   
    87   83   85 1   
    88   83   88 1   
    89   84   90 1   
    90   84   91 1   
    91   84   92 1   
    92   85   89 1   
    93   93   94 1   
    94   93  101 1   
    95   94   95 1   
    96   94   97 1   
    97   94  102 1   
    98   95   96 2   
    99   95  112 1   
   100   97   98 1   
   101   97   99 1   
   102   97  103 1   
   103   98  100 1   
   104   98  104 1   
   105   98  105 1   
   106   99  106 1   
   107   99  107 1   
   108   99  108 1   
   109  100  109 1   
   110  100  110 1   
   111  100  111 1   
   112  112  113 1   
   113  112  119 1   
   114  113  114 1   
   115  113  116 1   
   116  113  120 1   
   117  114  115 2   
   118  114  126 1   
   119  116  117 1   
   120  116  118 1   
   121  116  121 1   
   122  117  123 1   
   123  117  124 1   
   124  117  125 1   
   125  118  122 1   
   126  126  127 1   
   127  126  133 1   
   128  127  128 1   
   129  127  130 1   
   130  127  134 1   
   131  128  129 2   
   132  128  140 1   
   133  130  131 1   
   134  130  132 1   
   135  130  135 1   
   136  131  137 1   
   137  131  138 1   
   138  131  139 1   
   139  132  136 1   
   140  140  141 1   
   141  140  149 1   
   142  141  142 1   
   143  141  144 1   
   144  141  150 1   
   145  142  143 2   
   146  142  162 1   
   147  144  145 1   
   148  144  151 1   
   149  144  152 1   
   150  145  146 1   
   151  145  153 1   
   152  145  154 1   
   153  146  147 1   
   154  146  155 1   
   155  146  156 1   
   156  147  148 1   
   157  147  157 1   
   158  147  158 1   
   159  148  159 1   
   160  148  160 1   
   161  148  161 1   
   162  162  163 1   
   163  162  171 1   
   164  163  164 1   
   165  163  166 1   
   166  163  172 1   
   167  164  165 2   
   168  164  177 1   
   169  166  167 1   
   170  166  173 1   
   171  166  174 1   
   172  167  168 1   
   173  167  175 1   
   174  167  176 1   
   175  168  169 1   
   176  168  170 1   
   177  177  178 1   
   178  177  182 1   
   179  178  179 1   
   180  178  180 1   
   181  178  181 1   
   182  184  185 1   
   183  184  186 1   
   184  187  188 1   
   185  187  189 1   
   186  190  191 1   
   187  190  192 1   
   188  193  194 1   
   189  193  195 1   
   190  196  197 1   
   191  196  198 1   
@<TRIPOS>SUBSTRUCTURE
     1 MOL         1 TEMP              0 ****  ****    0 ROOT
