@<TRIPOS>MOLECULE
MOL
  186   183     1     0     0
SMALL
resp


@<TRIPOS>ATOM
      1 C1          3.8260    4.4240   -2.8720 c3        1 MOL     -0.363287
      2 C2          4.7290    3.4170   -2.1670 c         1 MOL      0.788903
      3 O1          4.4540    2.9730   -1.0740 o         1 MOL     -0.628925
      4 H1          2.9620    4.6390   -2.2430 hc        1 MOL      0.090111
      5 H2          4.3800    5.3450   -3.0550 hc        1 MOL      0.090111
      6 H3          3.4890    4.0080   -3.8210 hc        1 MOL      0.090111
      7 N1          5.8440    3.0700   -2.7400 n         1 MOL     -0.699318
      8 C3          6.7750    2.0910   -2.2620 c3        1 MOL      0.437402
      9 C4          6.0720    0.7750   -1.8330 c         1 MOL      0.388104
     10 O2          5.7930    0.4980   -0.6780 o         1 MOL     -0.490647
     11 C5          7.8420    2.6790   -1.2570 c3        1 MOL     -0.505810
     12 C6          7.2490    3.5090   -0.1280 c         1 MOL      0.905807
     13 O3          6.6320    2.9400    0.7880 o         1 MOL     -0.766512
     14 O4          7.4410    4.7540    0.0010 o         1 MOL     -0.766512
     15 H4          6.1510    3.5480   -3.5760 hn        1 MOL      0.318956
     16 H5          7.2360    1.6620   -3.1540 h1        1 MOL     -0.047826
     17 H6          8.5090    3.3660   -1.7960 hc        1 MOL      0.103817
     18 H7          8.3420    1.8910   -0.6910 hc        1 MOL      0.103817
     19 N2          5.6480    0.0440   -2.8910 n         1 MOL     -0.502447
     20 C7          4.8950   -1.2210   -2.9420 c3        1 MOL      0.096177
     21 C8          5.5440   -2.4520   -2.3380 c         1 MOL      0.438611
     22 O5          5.7920   -3.4260   -3.0390 o         1 MOL     -0.561170
     23 C9          3.4550   -0.9810   -2.4330 c3        1 MOL      0.166846
     24 C10         2.5640   -2.1570   -2.7660 c3        1 MOL     -0.048596
     25 C11         2.8510    0.3010   -3.0050 c3        1 MOL     -0.088038
     26 C12         2.5920   -2.6610   -4.2020 c3        1 MOL     -0.225850
     27 H8          5.6590    0.6220   -3.7150 hn        1 MOL      0.276195
     28 H9          4.8030   -1.4150   -4.0100 h1        1 MOL      0.034022
     29 H10         3.4780   -0.9620   -1.3470 hc        1 MOL     -0.027274
     30 H11         1.5260   -1.9460   -2.5150 hc        1 MOL      0.059166
     31 H12         2.8070   -2.9640   -2.0870 hc        1 MOL      0.059166
     32 H13         1.7730    0.1610   -2.9970 hc        1 MOL      0.005765
     33 H14         3.1080    1.1300   -2.3430 hc        1 MOL      0.005765
     34 H15         3.2130    0.5480   -4.0090 hc        1 MOL      0.005765
     35 H16         3.6120   -2.9600   -4.4520 hc        1 MOL      0.039705
     36 H17         2.0010   -3.5570   -4.3880 hc        1 MOL      0.039705
     37 H18         2.2540   -1.8510   -4.8570 hc        1 MOL      0.039705
     38 N3          5.8740   -2.3520   -1.0790 n         1 MOL     -0.204468
     39 C13         6.6600   -3.3340   -0.2660 c3        1 MOL      0.028349
     40 C14         6.0620   -4.7320   -0.0290 c         1 MOL      0.536786
     41 O6          6.8180   -5.7080   -0.2360 o         1 MOL     -0.573714
     42 C15         7.1380   -2.6710    1.0310 c3        1 MOL     -0.060883
     43 C16         8.2590   -1.6850    1.0180 c         1 MOL      0.719340
     44 O7          9.1540   -1.8120    0.1350 o         1 MOL     -0.720063
     45 O8          8.2640   -0.8530    1.9260 o         1 MOL     -0.720063
     46 H19         5.4830   -1.5960   -0.5290 hn        1 MOL      0.265144
     47 H20         7.6300   -3.5480   -0.7240 h1        1 MOL      0.043633
     48 H21         7.5280   -3.4510    1.6880 hc        1 MOL      0.028599
     49 H22         6.2770   -2.2380    1.5440 hc        1 MOL      0.028599
     50 N4          4.8210   -4.9290    0.4540 n         1 MOL     -0.623852
     51 C17         3.9600   -3.9400    1.1020 c3        1 MOL      0.328799
     52 C18         4.2110   -3.6770    2.5610 c         1 MOL      0.375433
     53 O9          5.0220   -4.3490    3.1370 o         1 MOL     -0.518934
     54 H23         4.6740   -5.9190    0.5270 hn        1 MOL      0.314791
     55 H24         2.9550   -4.3160    0.9430 h1        1 MOL      0.001092
     56 H25         4.0380   -2.9860    0.5720 h1        1 MOL      0.001092
     57 N5          3.6500   -2.6010    3.2370 n         1 MOL     -0.306529
     58 C19         2.4080   -1.9150    2.8270 c3        1 MOL     -0.062073
     59 C20         2.5210   -1.0300    1.5920 c         1 MOL      0.014143
     60 O10         3.5990   -0.6400    1.1600 o         1 MOL     -0.511471
     61 C21         1.9590   -1.0420    4.0420 c3        1 MOL     -0.267519
     62 C22         3.0340    0.0410    4.3410 c         1 MOL      0.752010
     63 O11         3.0580    1.0670    3.5850 o         1 MOL     -0.688904
     64 O12         3.6940    0.0090    5.4260 o         1 MOL     -0.688904
     65 H26         3.9180   -2.4740    4.2030 hn        1 MOL      0.269177
     66 H27         1.6440   -2.6840    2.6920 h1        1 MOL      0.114785
     67 H28         1.7480   -1.7530    4.8510 hc        1 MOL      0.077983
     68 H29         1.0040   -0.5650    3.8150 hc        1 MOL      0.077983
     69 N6          1.4010   -0.6250    1.0290 n         1 MOL      0.013795
     70 C23         0.0280   -1.1000    1.2450 c3        1 MOL     -0.067907
     71 C24        -0.2420   -2.5800    0.8940 c         1 MOL      0.435358
     72 O13         0.7330   -3.3120    0.6320 o         1 MOL     -0.469885
     73 H30         1.5370    0.1120    0.3480 hn        1 MOL      0.113153
     74 H31        -0.6060   -0.5280    0.5640 h1        1 MOL      0.077734
     75 H32        -0.2490   -0.9130    2.2830 h1        1 MOL      0.077734
     76 N7         -1.5490   -2.8260    0.6920 n         1 MOL     -0.307683
     77 C25        -2.0810   -4.1050    0.2040 c3        1 MOL      0.092196
     78 C26        -2.8460   -4.0410   -1.1580 c         1 MOL      0.581018
     79 O14        -2.9310   -5.0760   -1.8960 o         1 MOL     -0.565769
     80 C27        -2.7270   -4.9540    1.3900 c3        1 MOL     -0.177836
     81 C28        -3.9340   -4.3700    2.0930 c3        1 MOL     -0.166145
     82 C29        -5.1030   -4.0970    1.0900 c         1 MOL      0.299468
     83 N8         -5.9170   -5.0310    0.6480 n         1 MOL     -0.643550
     84 O15        -5.1870   -2.9550    0.5740 o         1 MOL     -0.438981
     85 H33        -2.2380   -2.1210    0.9390 hn        1 MOL      0.242731
     86 H34        -1.1570   -4.5850   -0.1150 h1        1 MOL      0.045491
     87 H35        -1.9620   -4.9710    2.1580 hc        1 MOL      0.081763
     88 H36        -2.8960   -5.9640    1.0140 hc        1 MOL      0.081763
     89 H37        -3.6540   -3.4040    2.4960 hc        1 MOL      0.102019
     90 H38        -4.2000   -5.0580    2.8890 hc        1 MOL      0.102019
     91 H39        -5.7450   -5.9870    0.9540 hn        1 MOL      0.344754
     92 H40        -6.6410   -4.7250    0.0170 hn        1 MOL      0.344754
     93 N9         -3.2970   -2.8540   -1.5140 n         1 MOL     -0.349163
     94 C30        -3.6280   -2.4980   -2.8940 c3        1 MOL     -0.252197
     95 C31        -5.0450   -1.9410   -3.0890 c         1 MOL      0.575338
     96 O16        -5.4810   -1.8460   -4.2180 o         1 MOL     -0.559125
     97 C32        -2.5860   -1.8210   -3.6880 c3        1 MOL      0.223605
     98 C33        -1.2340   -2.6020   -3.5850 c3        1 MOL     -0.200172
     99 C34        -2.4230   -0.3940   -3.1280 c3        1 MOL     -0.200172
    100 H41        -3.2410   -2.0910   -0.8600 hn        1 MOL      0.198165
    101 H42        -3.6820   -3.4900   -3.3250 h1        1 MOL      0.142834
    102 H43        -3.0080   -1.6820   -4.6820 hc        1 MOL      0.014063
    103 H44        -0.4420   -2.0390   -4.0840 hc        1 MOL      0.046119
    104 H45        -0.8930   -2.7890   -2.5640 hc        1 MOL      0.046119
    105 H46        -1.4500   -3.4860   -4.1840 hc        1 MOL      0.046119
    106 H47        -1.6810    0.1560   -3.7100 hc        1 MOL      0.046119
    107 H48        -3.3350    0.1980   -3.1710 hc        1 MOL      0.046119
    108 H49        -2.0480   -0.4420   -2.1040 hc        1 MOL      0.046119
    109 N10        -5.7590   -1.6830   -1.9730 n         1 MOL     -0.394024
    110 C35        -7.0380   -1.0960   -2.0550 c3        1 MOL      0.070440
    111 C36        -7.2140    0.2970   -1.3520 c         1 MOL      0.654912
    112 O17        -8.2040    0.9120   -1.6480 o         1 MOL     -0.584523
    113 C37        -8.0450   -2.0900   -1.4060 c3        1 MOL      0.038446
    114 C38        -8.0540   -3.4690   -1.9880 c         1 MOL      0.609203
    115 N11        -8.4800   -3.7910   -3.2110 n         1 MOL     -0.808311
    116 O18        -7.6640   -4.3710   -1.2960 o         1 MOL     -0.530734
    117 H50        -5.4400   -2.0390   -1.0870 hn        1 MOL      0.383349
    118 H51        -7.4600   -0.8860   -3.0290 h1        1 MOL      0.043206
    119 H52        -9.0370   -1.6380   -1.5400 hc        1 MOL     -0.045496
    120 H53        -7.7220   -2.0650   -0.3610 hc        1 MOL     -0.045496
    121 H54        -8.9610   -3.2320   -3.8860 hn        1 MOL      0.372081
    122 H55        -8.2300   -4.7250   -3.5150 hn        1 MOL      0.372081
    123 N12        -6.1920    0.8170   -0.7120 n         1 MOL     -0.684583
    124 C39        -6.3650    2.1370   -0.0740 c3        1 MOL      0.552250
    125 C40        -5.0020    2.8390    0.0880 c         1 MOL      0.154457
    126 O19        -3.9520    2.1940    0.1600 o         1 MOL     -0.322426
    127 C41        -7.0470    1.9260    1.2430 c3        1 MOL     -0.192297
    128 C42        -6.5320    0.8160    2.1620 ca        1 MOL      0.365155
    129 C43        -7.1580   -0.4530    2.0930 ca        1 MOL     -0.502420
    130 C44        -5.3200    1.0260    2.8750 ca        1 MOL     -0.502420
    131 C45        -6.6150   -1.4640    2.9380 ca        1 MOL      0.076607
    132 C46        -4.9070    0.0570    3.7990 ca        1 MOL      0.076607
    133 C47        -5.5880   -1.2210    3.8480 ca        1 MOL     -0.028783
    134 O20        -5.1350   -2.2130    4.7040 oh        1 MOL     -0.337340
    135 H56        -5.4160    0.2240   -0.4320 hn        1 MOL      0.240760
    136 H57        -6.9660    2.7930   -0.7110 h1        1 MOL     -0.038158
    137 H58        -8.0690    1.6350    0.9950 hc        1 MOL      0.030980
    138 H59        -7.0740    2.8600    1.7870 hc        1 MOL      0.030980
    139 H60        -8.0180   -0.6020    1.4530 ha        1 MOL      0.207065
    140 H61        -4.7210    1.9170    2.8140 ha        1 MOL      0.207065
    141 H62        -7.0730   -2.4490    2.9670 ha        1 MOL      0.130029
    142 H63        -4.0150    0.1630    4.3940 ha        1 MOL      0.130029
    143 H64        -5.6890   -2.9060    4.3500 ho        1 MOL      0.219752
    144 N13        -5.0850    4.0770    0.4520 n         1 MOL     -0.304412
    145 C48        -3.9430    4.9420    0.8710 c3        1 MOL     -0.004348
    146 C49        -2.7170    5.1440   -0.0480 c         1 MOL      0.240837
    147 O21        -2.1060    6.1830   -0.0620 o         1 MOL     -0.490531
    148 C50        -3.5180    4.5650    2.3080 c3        1 MOL      0.128410
    149 C51        -4.5930    4.6350    3.3590 c3        1 MOL     -0.072876
    150 C52        -4.1470    4.0950    4.6730 c         1 MOL      0.791704
    151 O22        -3.2830    3.2410    4.6440 o         1 MOL     -0.752742
    152 O23        -4.8330    4.4420    5.6670 o         1 MOL     -0.752742
    153 H65        -6.0020    4.4720    0.3430 hn        1 MOL      0.232464
    154 H66        -4.3810    5.9390    0.8810 h1        1 MOL      0.072629
    155 H67        -2.7020    5.1870    2.6570 hc        1 MOL      0.019355
    156 H68        -3.1380    3.5440    2.2630 hc        1 MOL      0.019355
    157 H69        -5.5650    4.1580    3.1740 hc        1 MOL     -0.045165
    158 H70        -4.8250    5.7020    3.4580 hc        1 MOL     -0.045165
    159 N14        -2.0960    4.2090   -0.7820 n         1 MOL     -0.153786
    160 C53        -0.9180    4.3420   -1.7650 c3        1 MOL      0.029000
    161 C54        -1.2500    5.1080   -3.0630 c         1 MOL      0.477568
    162 O24        -0.3940    5.7150   -3.6620 o         1 MOL     -0.537129
    163 C55        -0.3900    3.0080   -2.0270 c3        1 MOL     -0.016005
    164 C56        -0.0110    2.0890   -0.8870 c3        1 MOL      0.261681
    165 C57         1.1810    2.5420   -0.0030 c         1 MOL      0.555420
    166 O25         1.1100    3.6460    0.5950 o         1 MOL     -0.606912
    167 O26         2.1970    1.8190    0.0600 o         1 MOL     -0.606912
    168 H71        -2.5030    3.2930   -0.7110 hn        1 MOL      0.129636
    169 H72        -0.1220    4.9340   -1.3000 h1        1 MOL      0.116752
    170 H73         0.4460    3.0710   -2.7270 hc        1 MOL     -0.040534
    171 H74        -1.2670    2.5830   -2.5260 hc        1 MOL     -0.040534
    172 H75         0.1610    1.0680   -1.2240 hc        1 MOL     -0.103179
    173 H76        -0.9280    1.9070   -0.3140 hc        1 MOL     -0.103179
    174 N15        -2.5250    5.0580   -3.3950 n         1 MOL     -0.232885
    175 C58        -3.2810    5.8220   -4.4100 c3        1 MOL     -0.242126
    176 H77        -4.0820    6.3780   -3.9230 h1        1 MOL      0.098232
    177 H78        -2.6120    6.5170   -4.9160 h1        1 MOL      0.098232
    178 H79        -3.7090    5.1330   -5.1400 h1        1 MOL      0.098232
    179 H80        -3.1770    4.4780   -2.8730 hn        1 MOL      0.229831
    180 Ca1         4.4640    1.7420    1.2970 Ca        1 MOL      1.800401
    181 O27         3.5390    4.1950    1.9450 oh        1 MOL     -0.957295
    182 H81         2.6120    4.1970    1.6820 ho        1 MOL      0.439451
    183 H82         3.8100    5.1070    1.8430 ho        1 MOL      0.439451
    184 O28         6.1890    0.5890    2.9720 oh        1 MOL     -0.957295
    185 H83         6.2350    0.4110    3.9090 ho        1 MOL      0.439451
    186 H84         6.9400    0.1120    2.6050 ho        1 MOL      0.439451
@<TRIPOS>BOND
     1    1    2 1   
     2    1    4 1   
     3    1    5 1   
     4    1    6 1   
     5    2    3 2   
     6    2    7 1   
     7    7    8 1   
     8    7   15 1   
     9    8    9 1   
    10    8   11 1   
    11    8   16 1   
    12    9   10 2   
    13    9   19 1   
    14   11   12 1   
    15   11   17 1   
    16   11   18 1   
    17   12   13 1   
    18   12   14 1   
    19   19   20 1   
    20   19   27 1   
    21   20   21 1   
    22   20   23 1   
    23   20   28 1   
    24   21   22 2   
    25   21   38 1   
    26   23   24 1   
    27   23   25 1   
    28   23   29 1   
    29   24   26 1   
    30   24   30 1   
    31   24   31 1   
    32   25   32 1   
    33   25   33 1   
    34   25   34 1   
    35   26   35 1   
    36   26   36 1   
    37   26   37 1   
    38   38   39 1   
    39   38   46 1   
    40   39   40 1   
    41   39   42 1   
    42   39   47 1   
    43   40   41 2   
    44   40   50 1   
    45   42   43 1   
    46   42   48 1   
    47   42   49 1   
    48   43   44 1   
    49   43   45 1   
    50   50   51 1   
    51   50   54 1   
    52   51   52 1   
    53   51   55 1   
    54   51   56 1   
    55   52   53 2   
    56   52   57 1   
    57   57   58 1   
    58   57   65 1   
    59   58   59 1   
    60   58   61 1   
    61   58   66 1   
    62   59   60 2   
    63   59   69 1   
    64   61   62 1   
    65   61   67 1   
    66   61   68 1   
    67   62   63 1   
    68   62   64 1   
    69   69   70 1   
    70   69   73 1   
    71   70   71 1   
    72   70   74 1   
    73   70   75 1   
    74   71   72 2   
    75   71   76 1   
    76   76   77 1   
    77   76   85 1   
    78   77   78 1   
    79   77   80 1   
    80   77   86 1   
    81   78   79 2   
    82   78   93 1   
    83   80   81 1   
    84   80   87 1   
    85   80   88 1   
    86   81   82 1   
    87   81   89 1   
    88   81   90 1   
    89   82   83 1   
    90   82   84 2   
    91   83   91 1   
    92   83   92 1   
    93   93   94 1   
    94   93  100 1   
    95   94   95 1   
    96   94   97 1   
    97   94  101 1   
    98   95   96 2   
    99   95  109 1   
   100   97   98 1   
   101   97   99 1   
   102   97  102 1   
   103   98  103 1   
   104   98  104 1   
   105   98  105 1   
   106   99  106 1   
   107   99  107 1   
   108   99  108 1   
   109  109  110 1   
   110  109  117 1   
   111  110  111 1   
   112  110  113 1   
   113  110  118 1   
   114  111  112 2   
   115  111  123 1   
   116  113  114 1   
   117  113  119 1   
   118  113  120 1   
   119  114  115 1   
   120  114  116 2   
   121  115  121 1   
   122  115  122 1   
   123  123  124 1   
   124  123  135 1   
   125  124  125 1   
   126  124  127 1   
   127  124  136 1   
   128  125  126 2   
   129  125  144 1   
   130  127  128 1   
   131  127  137 1   
   132  127  138 1   
   133  128  129 ar  
   134  128  130 ar  
   135  129  131 ar  
   136  129  139 1   
   137  130  132 ar  
   138  130  140 1   
   139  131  133 ar  
   140  131  141 1   
   141  132  133 ar  
   142  132  142 1   
   143  133  134 1   
   144  134  143 1   
   145  144  145 1   
   146  144  153 1   
   147  145  146 1   
   148  145  148 1   
   149  145  154 1   
   150  146  147 2   
   151  146  159 1   
   152  148  149 1   
   153  148  155 1   
   154  148  156 1   
   155  149  150 1   
   156  149  157 1   
   157  149  158 1   
   158  150  151 1   
   159  150  152 1   
   160  159  160 1   
   161  159  168 1   
   162  160  161 1   
   163  160  163 1   
   164  160  169 1   
   165  161  162 2   
   166  161  174 1   
   167  163  164 1   
   168  163  170 1   
   169  163  171 1   
   170  164  165 1   
   171  164  172 1   
   172  164  173 1   
   173  165  166 1   
   174  165  167 1   
   175  174  175 1   
   176  174  179 1   
   177  175  176 1   
   178  175  177 1   
   179  175  178 1   
   180  181  182 1   
   181  181  183 1   
   182  184  185 1   
   183  184  186 1   
@<TRIPOS>SUBSTRUCTURE
     1 MOL         1 TEMP              0 ****  ****    0 ROOT
