@<TRIPOS>MOLECULE
MOL
  195   189     1     0     0
SMALL
resp


@<TRIPOS>ATOM
      1 C1         -3.8320    5.0160   -3.0810 c3        1 MOL     -0.356633
      2 C2         -3.0150    4.3170   -1.9950 c         1 MOL      0.696179
      3 O1         -2.4900    3.2230   -2.2690 o         1 MOL     -0.521119
      4 H1         -4.6690    5.5430   -2.6230 hc        1 MOL      0.081954
      5 H2         -3.1990    5.7290   -3.6100 hc        1 MOL      0.081954
      6 H3         -4.2110    4.2740   -3.7840 hc        1 MOL      0.081954
      7 N1         -2.8800    4.8250   -0.7900 n         1 MOL     -0.536355
      8 C3         -2.0960    4.2220    0.3560 c3        1 MOL     -0.184220
      9 C4         -0.5020    4.0540    0.1420 c         1 MOL      0.774372
     10 O2          0.0960    3.3140    0.8910 o         1 MOL     -0.572384
     11 C5         -2.8130    2.9520    0.7470 c3        1 MOL     -0.158630
     12 C6         -4.3340    3.0640    1.0430 c         1 MOL      0.524761
     13 O3         -4.7150    3.5550    2.0940 o         1 MOL     -0.641754
     14 O4         -5.1870    2.4770    0.3180 o         1 MOL     -0.641754
     15 H4         -3.2570    5.7250   -0.5430 hn        1 MOL      0.307582
     16 H5         -2.2480    4.8000    1.2650 h1        1 MOL      0.098478
     17 H6         -2.3150    2.6010    1.6430 hc        1 MOL      0.103782
     18 H7         -2.6720    2.2730   -0.0940 hc        1 MOL      0.103782
     19 N2          0.0580    4.7900   -0.8110 n         1 MOL     -0.404483
     20 C7          1.4530    4.8470   -1.0420 c3        1 MOL     -0.385886
     21 C8          2.1560    5.7080   -0.0180 c         1 MOL      0.429012
     22 O5          1.6540    6.7100    0.5570 o         1 MOL     -0.578492
     23 C9          1.7650    5.1880   -2.5020 c3        1 MOL      0.406170
     24 C10         1.6070    6.6380   -2.8960 c3        1 MOL      0.265222
     25 C11         0.9730    4.2740   -3.4430 c3        1 MOL     -0.262678
     26 C12         2.2250    7.0060   -4.2410 c3        1 MOL     -0.244060
     27 H8         -0.4840    5.4420   -1.3480 hn        1 MOL      0.249418
     28 H9          1.8020    3.8190   -0.9020 h1        1 MOL      0.214895
     29 H10         2.8020    4.9160   -2.7110 hc        1 MOL     -0.033897
     30 H11         2.1710    7.2300   -2.1660 hc        1 MOL     -0.064363
     31 H12         0.5630    6.9460   -2.8600 hc        1 MOL     -0.064363
     32 H13         1.1310    4.5500   -4.4810 hc        1 MOL      0.029248
     33 H14         1.2970    3.2460   -3.2670 hc        1 MOL      0.029248
     34 H15        -0.0890    4.3340   -3.2060 hc        1 MOL      0.029248
     35 H16         1.8920    8.0370   -4.3560 hc        1 MOL      0.042259
     36 H17         3.3050    6.9740   -4.0940 hc        1 MOL      0.042259
     37 H18         1.7290    6.4980   -5.0700 hc        1 MOL      0.042259
     38 N3          3.4130    5.4440    0.3060 n         1 MOL     -0.168679
     39 C13         4.2430    4.1770   -0.0150 c3        1 MOL     -0.334517
     40 C14         4.0230    3.0560    1.0040 c         1 MOL      0.466320
     41 O6          4.2810    1.9150    0.6780 o         1 MOL     -0.448974
     42 C15         5.7280    4.3660   -0.0940 c3        1 MOL     -0.075558
     43 C16         6.1130    5.4390   -1.0630 c         1 MOL      0.718122
     44 O7          6.4930    6.5540   -0.5950 o         1 MOL     -0.722802
     45 O8          6.0890    5.2160   -2.3040 o         1 MOL     -0.722802
     46 H19         3.9200    6.2200    0.6940 hn        1 MOL      0.250256
     47 H20         3.9350    3.7590   -0.9670 h1        1 MOL      0.143589
     48 H21         6.1800    3.4230   -0.3990 hc        1 MOL      0.022317
     49 H22         6.1820    4.5510    0.8760 hc        1 MOL      0.022317
     50 N4          3.6800    3.4720    2.2280 n         1 MOL     -0.154342
     51 C17         3.4700    2.5470    3.4000 c3        1 MOL     -0.314580
     52 C18         4.8270    2.0760    3.9230 c         1 MOL      0.572410
     53 O9          5.7660    2.8810    3.9590 o         1 MOL     -0.561157
     54 H23         3.4130    4.4280    2.4320 hn        1 MOL      0.236353
     55 H24         2.8490    1.6990    3.0940 h1        1 MOL      0.137261
     56 H25         3.0140    2.9860    4.2890 h1        1 MOL      0.137261
     57 N5          4.9810    0.7400    4.0410 n         1 MOL     -0.572140
     58 C19         6.3270    0.0200    4.1400 c3        1 MOL      0.212304
     59 C20         7.2680    0.1900    2.9410 c         1 MOL      0.317309
     60 O10         8.4310   -0.1780    3.0630 o         1 MOL     -0.569871
     61 C21         6.0550   -1.4400    4.2850 c3        1 MOL     -0.123499
     62 C22         5.0900   -2.2190    3.4280 c         1 MOL      0.702113
     63 O11         4.2050   -2.8890    3.9790 o         1 MOL     -0.688918
     64 O12         5.1130   -2.0450    2.2070 o         1 MOL     -0.688918
     65 H26         4.1410    0.2100    3.8190 hn        1 MOL      0.342148
     66 H27         6.8320    0.3070    5.0600 h1        1 MOL      0.060028
     67 H28         5.5140   -1.4600    5.2380 hc        1 MOL     -0.013147
     68 H29         6.9590   -2.0150    4.5130 hc        1 MOL     -0.013147
     69 N6          6.7720    0.6300    1.7890 n         1 MOL     -0.029648
     70 C23         7.5720    0.6320    0.5250 c3        1 MOL     -0.129344
     71 C24         7.5040   -0.5840   -0.3880 c         1 MOL      0.606426
     72 O13         7.6930   -0.5770   -1.6040 o         1 MOL     -0.597803
     73 H30         5.8180    0.9660    1.6980 hn        1 MOL      0.139364
     74 H31         8.6290    0.7250    0.7740 h1        1 MOL      0.082271
     75 H32         7.3370    1.4950   -0.1020 h1        1 MOL      0.082271
     76 N7          7.0820   -1.7840    0.1580 n         1 MOL     -0.379064
     77 C25         7.0450   -3.1310   -0.3680 c3        1 MOL     -0.063081
     78 C26         6.1800   -3.3830   -1.5790 c         1 MOL      0.480646
     79 O14         5.9550   -4.5140   -1.9720 o         1 MOL     -0.525091
     80 C27         8.4210   -3.7660   -0.3860 c3        1 MOL      0.075138
     81 C28         9.1940   -3.6010    0.9220 c3        1 MOL     -0.137266
     82 C29        10.6000   -4.2510    0.9460 c         1 MOL      0.628365
     83 N8         11.3650   -4.0620    1.9200 n         1 MOL     -0.742599
     84 O15        10.9250   -4.9970    0.0180 o         1 MOL     -0.601794
     85 H33         6.7100   -1.6500    1.0880 hn        1 MOL      0.186123
     86 H34         6.5180   -3.6560    0.4160 h1        1 MOL      0.134689
     87 H35         8.9760   -3.3160   -1.2080 hc        1 MOL      0.013823
     88 H36         8.3550   -4.8240   -0.6470 hc        1 MOL      0.013823
     89 H37         8.6630   -4.0050    1.7880 hc        1 MOL      0.061692
     90 H38         9.4010   -2.5370    0.9900 hc        1 MOL      0.061692
     91 H39        11.1160   -3.4100    2.6510 hn        1 MOL      0.340156
     92 H40        12.0670   -4.7760    2.0770 hn        1 MOL      0.340156
     93 N9          5.6190   -2.2980   -2.1890 n         1 MOL     -0.279548
     94 C30         4.8270   -2.3400   -3.4180 c3        1 MOL     -0.022997
     95 C31         3.3550   -2.3030   -3.2090 c         1 MOL      0.711804
     96 O16         2.6350   -3.0790   -3.8760 o         1 MOL     -0.594794
     97 C32         5.2900   -1.2740   -4.4080 c3        1 MOL      0.315304
     98 C33         6.6900   -1.6750   -4.7970 c3        1 MOL     -0.341031
     99 C34         4.2980   -1.1590   -5.5740 c3        1 MOL     -0.341031
    100 H41         5.8580   -1.3550   -1.9250 hn        1 MOL      0.238236
    101 H42         5.0120   -3.2990   -3.8920 h1        1 MOL      0.048624
    102 H43         5.3970   -0.3140   -3.9180 hc        1 MOL     -0.022116
    103 H44         7.3900   -1.4700   -3.9900 hc        1 MOL      0.069356
    104 H45         6.6320   -2.7080   -5.1550 hc        1 MOL      0.069356
    105 H46         7.0200   -1.0250   -5.6080 hc        1 MOL      0.069356
    106 H47         4.5670   -0.3980   -6.3160 hc        1 MOL      0.069356
    107 H48         4.1310   -2.0770   -6.1210 hc        1 MOL      0.069356
    108 H49         3.3150   -0.8490   -5.2180 hc        1 MOL      0.069356
    109 N10         2.9270   -1.4120   -2.3100 n         1 MOL     -0.783949
    110 C35         1.4980   -1.1640   -2.0610 c3        1 MOL      0.499629
    111 C36         0.8450   -2.2130   -1.0990 c         1 MOL      0.581696
    112 O17         1.6070   -3.0220   -0.5560 o         1 MOL     -0.499348
    113 C37         1.3340    0.2520   -1.4650 c3        1 MOL     -0.297009
    114 C38        -0.0770    0.7830   -1.7310 c         1 MOL      0.628614
    115 N11        -0.3890    1.1560   -2.9700 n         1 MOL     -0.691014
    116 O18        -0.9220    0.6950   -0.9230 o         1 MOL     -0.531497
    117 H50         3.6160   -0.7880   -1.9140 hn        1 MOL      0.321225
    118 H51         0.9180   -1.1640   -2.9800 h1        1 MOL     -0.063186
    119 H52         1.9640    1.0370   -1.8870 hc        1 MOL      0.084767
    120 H53         1.5490    0.2570   -0.3950 hc        1 MOL      0.084767
    121 H54         0.4220    1.1450   -3.5710 hn        1 MOL      0.317260
    122 H55        -1.1880    1.7700   -3.0720 hn        1 MOL      0.317260
    123 N12        -0.4720   -2.1420   -0.8950 n         1 MOL     -0.891070
    124 C39        -1.2900   -3.0470   -0.0640 c3        1 MOL      0.539555
    125 C40        -2.6630   -3.1110   -0.5790 c         1 MOL      0.677742
    126 O19        -3.1530   -2.0420   -0.9960 o         1 MOL     -0.559622
    127 C41        -1.1790   -2.5650    1.4330 c3        1 MOL     -0.272208
    128 C42        -1.5690   -3.5800    2.5360 ca        1 MOL      0.002646
    129 C43        -2.8560   -3.4780    3.0830 ca        1 MOL     -0.140553
    130 C44        -0.6450   -4.6450    2.8570 ca        1 MOL     -0.140553
    131 C45        -3.2890   -4.4410    3.9930 ca        1 MOL     -0.217711
    132 C46        -1.1490   -5.6230    3.6910 ca        1 MOL     -0.217711
    133 C47        -2.4110   -5.4750    4.3340 ca        1 MOL      0.279215
    134 O20        -2.8090   -6.4090    5.2130 oh        1 MOL     -0.491751
    135 H56        -0.9020   -1.3160   -1.2860 hn        1 MOL      0.366747
    136 H57        -0.8310   -4.0390   -0.0920 h1        1 MOL     -0.007502
    137 H58        -1.7860   -1.6660    1.4640 hc        1 MOL      0.109997
    138 H59        -0.1070   -2.4370    1.5900 hc        1 MOL      0.109997
    139 H60        -3.4730   -2.6610    2.7500 ha        1 MOL      0.158459
    140 H61         0.2750   -4.8170    2.3130 ha        1 MOL      0.158459
    141 H62        -4.2370   -4.3410    4.5140 ha        1 MOL      0.127244
    142 H63        -0.5360   -6.4690    3.9950 ha        1 MOL      0.127244
    143 H64        -3.7140   -6.2900    5.5020 ho        1 MOL      0.356216
    144 N13        -3.4620   -4.1940   -0.5740 n         1 MOL     -1.027713
    145 C48        -4.8090   -4.2450   -1.0960 c3        1 MOL      0.893401
    146 C49        -5.8170   -4.1230    0.1010 c         1 MOL      0.486604
    147 O21        -5.9480   -5.0320    0.9070 o         1 MOL     -0.561648
    148 C50        -4.9920   -5.6700   -1.6710 c3        1 MOL     -0.129972
    149 C51        -6.3410   -5.7620   -2.3680 c3        1 MOL     -0.148447
    150 C52        -6.5820   -7.1210   -2.9930 c         1 MOL      0.696736
    151 O22        -6.4660   -7.2720   -4.2200 o         1 MOL     -0.713959
    152 O23        -6.9990   -8.0250   -2.1680 o         1 MOL     -0.713959
    153 H65        -3.0810   -5.0550   -0.2150 hn        1 MOL      0.354921
    154 H66        -4.9380   -3.4860   -1.8690 h1        1 MOL     -0.153964
    155 H67        -4.9130   -6.4500   -0.9140 hc        1 MOL      0.023253
    156 H68        -4.2480   -5.8800   -2.4310 hc        1 MOL      0.023253
    157 H69        -6.3550   -5.0530   -3.1880 hc        1 MOL      0.035127
    158 H70        -7.2180   -5.5300   -1.7630 hc        1 MOL      0.035127
    159 N14        -6.8200   -3.1870    0.0570 n         1 MOL     -0.655286
    160 C53        -6.7570   -1.9360   -0.6630 c3        1 MOL     -0.128843
    161 C54        -7.3090   -2.0060   -2.0810 c         1 MOL      0.480642
    162 O24        -8.0590   -2.9340   -2.4190 o         1 MOL     -0.515908
    163 C55        -7.3060   -0.8230    0.2040 c3        1 MOL      0.501294
    164 C56        -8.8000   -0.7060    0.2650 c3        1 MOL     -0.020539
    165 C57        -9.1870    0.3800    1.2570 c         1 MOL      0.671339
    166 O25        -9.7420    0.1630    2.3440 o         1 MOL     -0.721273
    167 O26        -8.8780    1.5640    0.9020 o         1 MOL     -0.721273
    168 H71        -7.6690   -3.4380    0.5420 hn        1 MOL      0.373170
    169 H72        -5.6810   -1.7890   -0.7560 h1        1 MOL      0.058753
    170 H73        -6.9770    0.1270   -0.2160 hc        1 MOL     -0.127438
    171 H74        -6.8940   -1.0510    1.1820 hc        1 MOL     -0.127438
    172 H75        -9.2030   -1.6520    0.6320 hc        1 MOL     -0.036350
    173 H76        -9.1700   -0.3720   -0.7020 hc        1 MOL     -0.036350
    174 N15        -6.8940   -1.0570   -2.9570 n         1 MOL     -0.205172
    175 C58        -7.4260   -0.8510   -4.2990 c3        1 MOL     -0.425941
    176 H77        -8.1680   -0.0530   -4.2760 h1        1 MOL      0.147555
    177 H78        -6.6160   -0.5750   -4.9730 h1        1 MOL      0.147555
    178 H79        -7.8940   -1.7710   -4.6500 h1        1 MOL      0.147555
    179 H80        -6.2290   -0.3890   -2.6130 hn        1 MOL      0.247405
    180 Ca1        -7.2600    3.4160    1.7890 Ca        1 MOL      1.725218
    181 O27        -6.7840    4.9140    4.0280 oh        1 MOL     -0.876385
    182 H81        -7.1600    5.7560    4.2970 ho        1 MOL      0.414088
    183 H82        -6.2680    4.6380    4.7880 ho        1 MOL      0.414088
    184 O28        -8.7630    5.5780    1.5870 oh        1 MOL     -0.876385
    185 H83        -8.9020    6.0320    0.7640 ho        1 MOL      0.414088
    186 H84        -9.3470    6.0160    2.2100 ho        1 MOL      0.414088
    187 O29        -7.9730    3.6290   -0.7720 oh        1 MOL     -0.876385
    188 H85        -7.5010    4.0780   -1.4750 ho        1 MOL      0.414088
    189 H86        -8.5680    3.0400   -1.2220 ho        1 MOL      0.414088
    190 O30        -8.6850    2.2590    3.7940 oh        1 MOL     -0.876385
    191 H87        -8.9660    1.5130    3.2720 ho        1 MOL      0.414088
    192 H88        -9.3100    2.3090    4.5200 ho        1 MOL      0.414088
    193 O31        -6.1160    1.0180    2.9130 oh        1 MOL     -0.876385
    194 H89        -5.1790    1.1980    2.9680 ho        1 MOL      0.414088
    195 H90        -6.1950    0.0890    3.1050 ho        1 MOL      0.414088
@<TRIPOS>BOND
     1    1    2 1   
     2    1    4 1   
     3    1    5 1   
     4    1    6 1   
     5    2    3 2   
     6    2    7 1   
     7    7    8 1   
     8    7   15 1   
     9    8    9 1   
    10    8   11 1   
    11    8   16 1   
    12    9   10 2   
    13    9   19 1   
    14   11   12 1   
    15   11   17 1   
    16   11   18 1   
    17   12   13 1   
    18   12   14 1   
    19   19   20 1   
    20   19   27 1   
    21   20   21 1   
    22   20   23 1   
    23   20   28 1   
    24   21   22 2   
    25   21   38 1   
    26   23   24 1   
    27   23   25 1   
    28   23   29 1   
    29   24   26 1   
    30   24   30 1   
    31   24   31 1   
    32   25   32 1   
    33   25   33 1   
    34   25   34 1   
    35   26   35 1   
    36   26   36 1   
    37   26   37 1   
    38   38   39 1   
    39   38   46 1   
    40   39   40 1   
    41   39   42 1   
    42   39   47 1   
    43   40   41 2   
    44   40   50 1   
    45   42   43 1   
    46   42   48 1   
    47   42   49 1   
    48   43   44 1   
    49   43   45 1   
    50   50   51 1   
    51   50   54 1   
    52   51   52 1   
    53   51   55 1   
    54   51   56 1   
    55   52   53 2   
    56   52   57 1   
    57   57   58 1   
    58   57   65 1   
    59   58   59 1   
    60   58   61 1   
    61   58   66 1   
    62   59   60 2   
    63   59   69 1   
    64   61   62 1   
    65   61   67 1   
    66   61   68 1   
    67   62   63 1   
    68   62   64 1   
    69   69   70 1   
    70   69   73 1   
    71   70   71 1   
    72   70   74 1   
    73   70   75 1   
    74   71   72 2   
    75   71   76 1   
    76   76   77 1   
    77   76   85 1   
    78   77   78 1   
    79   77   80 1   
    80   77   86 1   
    81   78   79 2   
    82   78   93 1   
    83   80   81 1   
    84   80   87 1   
    85   80   88 1   
    86   81   82 1   
    87   81   89 1   
    88   81   90 1   
    89   82   83 1   
    90   82   84 2   
    91   83   91 1   
    92   83   92 1   
    93   93   94 1   
    94   93  100 1   
    95   94   95 1   
    96   94   97 1   
    97   94  101 1   
    98   95   96 2   
    99   95  109 1   
   100   97   98 1   
   101   97   99 1   
   102   97  102 1   
   103   98  103 1   
   104   98  104 1   
   105   98  105 1   
   106   99  106 1   
   107   99  107 1   
   108   99  108 1   
   109  109  110 1   
   110  109  117 1   
   111  110  111 1   
   112  110  113 1   
   113  110  118 1   
   114  111  112 2   
   115  111  123 1   
   116  113  114 1   
   117  113  119 1   
   118  113  120 1   
   119  114  115 1   
   120  114  116 2   
   121  115  121 1   
   122  115  122 1   
   123  123  124 1   
   124  123  135 1   
   125  124  125 1   
   126  124  127 1   
   127  124  136 1   
   128  125  126 2   
   129  125  144 1   
   130  127  128 1   
   131  127  137 1   
   132  127  138 1   
   133  128  129 ar  
   134  128  130 ar  
   135  129  131 ar  
   136  129  139 1   
   137  130  132 ar  
   138  130  140 1   
   139  131  133 ar  
   140  131  141 1   
   141  132  133 ar  
   142  132  142 1   
   143  133  134 1   
   144  134  143 1   
   145  144  145 1   
   146  144  153 1   
   147  145  146 1   
   148  145  148 1   
   149  145  154 1   
   150  146  147 2   
   151  146  159 1   
   152  148  149 1   
   153  148  155 1   
   154  148  156 1   
   155  149  150 1   
   156  149  157 1   
   157  149  158 1   
   158  150  151 1   
   159  150  152 1   
   160  159  160 1   
   161  159  168 1   
   162  160  161 1   
   163  160  163 1   
   164  160  169 1   
   165  161  162 2   
   166  161  174 1   
   167  163  164 1   
   168  163  170 1   
   169  163  171 1   
   170  164  165 1   
   171  164  172 1   
   172  164  173 1   
   173  165  166 1   
   174  165  167 1   
   175  174  175 1   
   176  174  179 1   
   177  175  176 1   
   178  175  177 1   
   179  175  178 1   
   180  181  182 1   
   181  181  183 1   
   182  184  185 1   
   183  184  186 1   
   184  187  188 1   
   185  187  189 1   
   186  190  191 1   
   187  190  192 1   
   188  193  194 1   
   189  193  195 1   
@<TRIPOS>SUBSTRUCTURE
     1 MOL         1 TEMP              0 ****  ****    0 ROOT
