@<TRIPOS>MOLECULE
MOL
  181   177     1     0     0
SMALL
resp


@<TRIPOS>ATOM
      1 C1          9.9340    7.3350    0.6810 c3        1 MOL     -0.303588
      2 C2          8.8820    6.2100    0.8420 c         1 MOL      0.569494
      3 O1          7.8680    6.4550    1.5790 o         1 MOL     -0.552376
      4 H1          9.4880    8.2910    0.9550 hc        1 MOL      0.083823
      5 H2         10.7850    7.1340    1.3320 hc        1 MOL      0.083823
      6 H3         10.2690    7.3740   -0.3550 hc        1 MOL      0.083823
      7 N1          8.9750    5.0710    0.1460 n         1 MOL     -0.470954
      8 C3         10.1500    4.5910   -0.6860 c3        1 MOL      0.092415
      9 C4         11.0500    3.6710    0.0810 c         1 MOL      0.595194
     10 O2         12.1840    3.3980   -0.2570 o         1 MOL     -0.576278
     11 C5          9.7340    3.9870   -2.0490 c3        1 MOL     -0.208276
     12 C6          8.6990    2.8300   -2.0010 c         1 MOL      0.752858
     13 O3          8.2330    2.4800   -0.9080 o         1 MOL     -0.753438
     14 O4          8.3090    2.2980   -3.0910 o         1 MOL     -0.753438
     15 H4          8.1980    4.4410    0.2800 hn        1 MOL      0.306738
     16 H5         10.7510    5.4780   -0.9140 h1        1 MOL      0.043472
     17 H6         10.5300    3.6580   -2.7120 hc        1 MOL      0.061644
     18 H7          9.2790    4.8310   -2.5800 hc        1 MOL      0.061644
     19 N2         10.5140    3.1600    1.2120 n         1 MOL     -0.552461
     20 C7         11.2200    2.2350    2.0560 c3        1 MOL      0.133036
     21 C8         10.3900    0.9380    2.5600 c         1 MOL      0.441305
     22 O5         10.9490    0.1570    3.2980 o         1 MOL     -0.545219
     23 C9         11.6880    3.0120    3.2890 c3        1 MOL     -0.236469
     24 H8          9.5650    3.4100    1.4410 hn        1 MOL      0.333206
     25 H9         12.1650    1.8180    1.6890 h1        1 MOL      0.099370
     26 H10        12.3280    3.8330    2.9790 hc        1 MOL      0.064786
     27 H11        10.8910    3.3190    3.9650 hc        1 MOL      0.064786
     28 H12        12.4530    2.4310    3.8140 hc        1 MOL      0.064786
     29 N3          9.1840    0.7590    2.0410 n         1 MOL     -0.179988
     30 C10         8.4560   -0.5300    2.1040 c3        1 MOL     -0.036441
     31 C11         8.5200   -1.3080    0.7410 c         1 MOL      0.399705
     32 O6          8.7390   -0.6400   -0.3120 o         1 MOL     -0.503337
     33 C12         7.0160   -0.3660    2.5860 c3        1 MOL     -0.224906
     34 C13         6.2340    0.7030    1.8570 c         1 MOL      0.621600
     35 O7          5.8270    1.6550    2.5030 o         1 MOL     -0.648350
     36 O8          6.0910    0.6920    0.6160 o         1 MOL     -0.648350
     37 H13         8.8770    1.3140    1.2650 hn        1 MOL      0.214565
     38 H14         8.9530   -1.1990    2.8030 h1        1 MOL      0.079314
     39 H15         7.0920    0.0200    3.6000 hc        1 MOL      0.077886
     40 H16         6.4500   -1.2930    2.6900 hc        1 MOL      0.077886
     41 N4          8.2380   -2.6140    0.6460 n         1 MOL     -0.382811
     42 C14         8.0090   -3.3280   -0.6310 c3        1 MOL      0.049330
     43 C15         6.6680   -3.1000   -1.2660 c         1 MOL      0.301264
     44 O9          6.4210   -2.0820   -1.9190 o         1 MOL     -0.432350
     45 H17         8.0620   -3.1330    1.5000 hn        1 MOL      0.281562
     46 H18         8.1870   -4.3900   -0.4620 h1        1 MOL      0.049542
     47 H19         8.7740   -2.9780   -1.3250 h1        1 MOL      0.049542
     48 N5          5.8080   -4.1550   -1.1470 n         1 MOL     -0.333122
     49 C16         4.4260   -4.2400   -1.6160 c3        1 MOL      0.212525
     50 C17         3.5620   -4.7970   -0.4990 c         1 MOL      0.551672
     51 O10         3.9460   -5.5520    0.4060 o         1 MOL     -0.534458
     52 C18         4.2830   -5.1010   -2.8470 c3        1 MOL     -0.209471
     53 C19         5.2470   -4.7850   -3.9680 c         1 MOL      0.644724
     54 N6          6.2670   -5.6170   -4.2650 n         1 MOL     -0.815312
     55 O11         5.1490   -3.6910   -4.4930 o         1 MOL     -0.532954
     56 H20         6.1410   -4.9570   -0.6240 hn        1 MOL      0.230221
     57 H21         4.1400   -3.2150   -1.8170 h1        1 MOL     -0.009511
     58 H22         3.2650   -4.9830   -3.2140 hc        1 MOL      0.056990
     59 H23         4.4170   -6.1220   -2.4980 hc        1 MOL      0.056990
     60 H24         6.4710   -6.4250   -3.7030 hn        1 MOL      0.370092
     61 H25         6.7670   -5.3570   -5.1000 hn        1 MOL      0.370092
     62 N7          2.2990   -4.4600   -0.6060 n         1 MOL     -0.603159
     63 C20         1.2180   -4.7380    0.4100 c3        1 MOL     -0.014339
     64 C21         1.2590   -3.7870    1.5960 c         1 MOL      0.691505
     65 O12         2.2500   -3.0890    1.8060 o         1 MOL     -0.557079
     66 H26         2.0260   -3.7680   -1.2830 hn        1 MOL      0.371001
     67 H27         1.1720   -5.7910    0.6690 h1        1 MOL      0.117334
     68 H28         0.3220   -4.4120   -0.1220 h1        1 MOL      0.117334
     69 N8          0.2030   -3.7740    2.4080 n         1 MOL     -0.673988
     70 C22        -0.9550   -4.6500    2.2000 c3        1 MOL      0.116289
     71 C23        -2.2510   -3.9770    1.7660 c         1 MOL      0.572695
     72 O13        -3.1060   -4.7400    1.2700 o         1 MOL     -0.572937
     73 C24        -1.1910   -5.5400    3.3990 c3        1 MOL      0.492483
     74 C25         0.0490   -6.3770    3.8070 c3        1 MOL     -0.510226
     75 O14        -1.5280   -4.8330    4.5500 oh        1 MOL     -0.667668
     76 H29         0.3360   -3.3620    3.3260 hn        1 MOL      0.379981
     77 H30        -0.8050   -5.4360    1.4630 h1        1 MOL     -0.042005
     78 H31        -2.0430   -6.1810    3.1700 h1        1 MOL     -0.036925
     79 H32        -1.8660   -5.4730    5.1800 ho        1 MOL      0.411861
     80 H33         0.6910   -5.7730    4.4570 hc        1 MOL      0.121603
     81 H34        -0.3460   -7.1720    4.4470 hc        1 MOL      0.121603
     82 H35         0.6410   -6.7190    2.9590 hc        1 MOL      0.121603
     83 N9         -2.3690   -2.6650    1.8780 n         1 MOL     -0.483839
     84 C26        -3.5840   -1.8780    1.6690 c3        1 MOL      0.111705
     85 C27        -3.3950   -0.6660    0.8180 c         1 MOL      0.373673
     86 O15        -2.3790    0.0380    0.9840 o         1 MOL     -0.551919
     87 C28        -4.2970   -1.5000    3.0050 c3        1 MOL      0.058082
     88 C29        -4.8430   -2.8420    3.6180 c3        1 MOL     -0.053359
     89 C30        -5.2940   -0.3020    3.0180 c3        1 MOL     -0.000812
     90 C31        -6.0920   -3.3780    2.9620 c3        1 MOL     -0.099383
     91 H36        -1.6630   -2.1840    2.4160 hn        1 MOL      0.290790
     92 H37        -4.2800   -2.4800    1.0900 h1        1 MOL      0.171776
     93 H38        -3.5050   -1.1840    3.6910 hc        1 MOL      0.000676
     94 H39        -4.9990   -2.6390    4.6840 hc        1 MOL      0.002833
     95 H40        -4.0200   -3.5580    3.6720 hc        1 MOL      0.002833
     96 H41        -6.1580   -0.3980    2.3580 hc        1 MOL      0.020247
     97 H42        -5.6320   -0.2290    4.0460 hc        1 MOL      0.020247
     98 H43        -4.8160    0.6560    2.8060 hc        1 MOL      0.020247
     99 H44        -6.9590   -2.7170    2.9890 hc        1 MOL      0.020887
    100 H45        -5.8310   -3.8800    2.0370 hc        1 MOL      0.020887
    101 H46        -6.4630   -4.1880    3.5950 hc        1 MOL      0.020887
    102 N10        -4.3090   -0.3030   -0.0710 n         1 MOL     -0.209977
    103 C32        -5.6540   -0.9030   -0.2680 c3        1 MOL     -0.009681
    104 C33        -6.6860    0.1070   -0.8230 c         1 MOL      0.408413
    105 O16        -6.3070    1.1060   -1.5070 o         1 MOL     -0.471504
    106 C34        -5.5830   -2.0790   -1.2340 c3        1 MOL     -0.442705
    107 C35        -4.8860   -1.7920   -2.5510 c         1 MOL      0.813124
    108 O17        -5.4440   -1.4600   -3.6180 o         1 MOL     -0.738451
    109 O18        -3.6340   -1.9850   -2.6070 o         1 MOL     -0.738451
    110 H47        -4.1140    0.5680   -0.5270 hn        1 MOL      0.260392
    111 H48        -6.0700   -1.3290    0.6490 h1        1 MOL      0.025617
    112 H49        -6.5700   -2.4060   -1.5650 hc        1 MOL      0.093972
    113 H50        -5.0940   -2.8950   -0.7020 hc        1 MOL      0.093972
    114 N11        -7.9670   -0.1470   -0.5990 n         1 MOL     -0.320092
    115 C36        -9.1520    0.4870   -1.1620 c3        1 MOL      0.451061
    116 C37       -10.1450    0.8220   -0.0300 c         1 MOL      0.106047
    117 O19       -10.5990   -0.0250    0.7810 o         1 MOL     -0.468249
    118 C38        -9.7660   -0.2120   -2.3840 c3        1 MOL     -0.201039
    119 C39       -10.2670   -1.6280   -2.0890 ca        1 MOL     -0.000503
    120 C40        -9.4280   -2.7170   -2.4440 ca        1 MOL     -0.077521
    121 C41       -11.5910   -1.8830   -1.4410 ca        1 MOL     -0.077521
    122 C42        -9.8760   -3.9920   -2.2010 ca        1 MOL     -0.142869
    123 C43       -12.0680   -3.2040   -1.3200 ca        1 MOL     -0.142869
    124 C44       -11.1580   -4.2450   -1.7110 ca        1 MOL     -0.145441
    125 H51        -8.1470   -0.9950   -0.0820 hn        1 MOL      0.246726
    126 H52        -8.7870    1.4320   -1.5620 h1        1 MOL     -0.067509
    127 H53        -8.9450   -0.2380   -3.1000 hc        1 MOL      0.078665
    128 H54       -10.6180    0.3510   -2.7610 hc        1 MOL      0.078665
    129 H55        -8.4280   -2.6180   -2.8210 ha        1 MOL      0.096525
    130 H56       -12.2480   -1.0590   -1.2290 ha        1 MOL      0.096525
    131 H57        -9.1620   -4.7800   -2.4080 ha        1 MOL      0.112334
    132 H58       -13.1030   -3.3420   -1.0470 ha        1 MOL      0.112334
    133 H59       -11.4180   -5.2820   -1.5800 ha        1 MOL      0.095064
    134 N12       -10.7090    2.0690   -0.1240 n         1 MOL      0.148514
    135 C45       -10.5470    3.0600   -1.2310 c3        1 MOL      0.006073
    136 C46        -9.1970    3.7660   -1.2750 c         1 MOL      0.577610
    137 O20        -8.7100    4.1030   -2.3250 o         1 MOL     -0.581968
    138 C47       -11.7350    4.0290   -1.0690 c3        1 MOL     -0.240484
    139 C48       -12.1470    3.9190    0.4520 c3        1 MOL      0.135690
    140 C49       -11.8010    2.5090    0.7870 c3        1 MOL     -0.360983
    141 H60       -10.6660    2.5130   -2.1730 h1        1 MOL      0.027133
    142 H61       -11.5320    5.0750   -1.3330 hc        1 MOL      0.073747
    143 H62       -12.5720    3.6590   -1.6500 hc        1 MOL      0.073747
    144 H63       -11.7130    4.7250    1.0490 hc        1 MOL      0.007459
    145 H64       -13.2280    4.0370    0.5560 hc        1 MOL      0.007459
    146 H65       -11.3870    2.4440    1.7980 h1        1 MOL      0.130731
    147 H66       -12.6950    1.9010    0.7020 h1        1 MOL      0.130731
    148 N13        -8.5240    3.8830   -0.1300 n         1 MOL     -0.368228
    149 C50        -7.2180    4.4900    0.0360 c3        1 MOL      0.271688
    150 C51        -7.4080    5.9750   -0.1790 c         1 MOL      0.306771
    151 O21        -8.0880    6.6200    0.6430 o         1 MOL     -0.555998
    152 C52        -6.7300    4.3110    1.4640 c3        1 MOL      0.159454
    153 C53        -6.5530    2.8450    1.8330 c3        1 MOL     -0.283062
    154 C54        -6.5390    2.6880    3.3720 c         1 MOL      0.778304
    155 O22        -7.5290    2.4360    4.0520 o         1 MOL     -0.733940
    156 O23        -5.4540    3.0170    3.9820 o         1 MOL     -0.733940
    157 H67        -8.9870    3.6970    0.7450 hn        1 MOL      0.255081
    158 H68        -6.4660    4.0970   -0.6480 h1        1 MOL      0.048994
    159 H69        -7.3850    4.8250    2.1690 hc        1 MOL     -0.025380
    160 H70        -5.7600    4.8020    1.4090 hc        1 MOL     -0.025380
    161 H71        -5.6550    2.4530    1.3650 hc        1 MOL     -0.008693
    162 H72        -7.3830    2.2290    1.5060 hc        1 MOL     -0.008693
    163 N14        -6.8820    6.6230   -1.2450 n         1 MOL     -0.272763
    164 C55        -6.3000    6.1200   -2.4780 c3        1 MOL     -0.198065
    165 H73        -6.2850    5.0310   -2.4540 h1        1 MOL      0.092744
    166 H74        -6.8970    6.4560   -3.3250 h1        1 MOL      0.092744
    167 H75        -5.2820    6.4940   -2.5780 h1        1 MOL      0.092744
    168 H76        -6.9890    7.6350   -1.2050 hn        1 MOL      0.244058
    169 Ca1         6.6550    0.6390   -1.9260 Ca        1 MOL      1.680429
    170 O24         5.1490    2.7280   -2.5250 oh        1 MOL     -0.815637
    171 H77         5.1650    3.2830   -3.3030 ho        1 MOL      0.413987
    172 H78         4.5570    3.1680   -1.9210 ho        1 MOL      0.413987
    173 O25         5.6570    0.3980   -4.2600 oh        1 MOL     -0.815637
    174 H79         5.6130    1.0250   -4.9850 ho        1 MOL      0.413987
    175 H80         5.1330   -0.3430   -4.5600 ho        1 MOL      0.413987
    176 O26         4.1500   -0.3220   -1.2670 oh        1 MOL     -0.815637
    177 H81         3.2310   -0.0490   -1.1930 ho        1 MOL      0.413987
    178 H82         4.2750   -0.9350   -0.5300 ho        1 MOL      0.413987
    179 O27         8.7120   -0.6990   -3.1880 oh        1 MOL     -0.815637
    180 H83         8.6850   -1.4940   -3.7210 ho        1 MOL      0.413987
    181 H84         9.6430   -0.5810   -2.9710 ho        1 MOL      0.413987
@<TRIPOS>BOND
     1    1    2 1   
     2    1    4 1   
     3    1    5 1   
     4    1    6 1   
     5    2    3 2   
     6    2    7 1   
     7    7    8 1   
     8    7   15 1   
     9    8    9 1   
    10    8   11 1   
    11    8   16 1   
    12    9   10 2   
    13    9   19 1   
    14   11   12 1   
    15   11   17 1   
    16   11   18 1   
    17   12   13 1   
    18   12   14 1   
    19   19   20 1   
    20   19   24 1   
    21   20   21 1   
    22   20   23 1   
    23   20   25 1   
    24   21   22 2   
    25   21   29 1   
    26   23   26 1   
    27   23   27 1   
    28   23   28 1   
    29   29   30 1   
    30   29   37 1   
    31   30   31 1   
    32   30   33 1   
    33   30   38 1   
    34   31   32 2   
    35   31   41 1   
    36   33   34 1   
    37   33   39 1   
    38   33   40 1   
    39   34   35 1   
    40   34   36 1   
    41   41   42 1   
    42   41   45 1   
    43   42   43 1   
    44   42   46 1   
    45   42   47 1   
    46   43   44 2   
    47   43   48 1   
    48   48   49 1   
    49   48   56 1   
    50   49   50 1   
    51   49   52 1   
    52   49   57 1   
    53   50   51 2   
    54   50   62 1   
    55   52   53 1   
    56   52   58 1   
    57   52   59 1   
    58   53   54 1   
    59   53   55 2   
    60   54   60 1   
    61   54   61 1   
    62   62   63 1   
    63   62   66 1   
    64   63   64 1   
    65   63   67 1   
    66   63   68 1   
    67   64   65 2   
    68   64   69 1   
    69   69   70 1   
    70   69   76 1   
    71   70   71 1   
    72   70   73 1   
    73   70   77 1   
    74   71   72 2   
    75   71   83 1   
    76   73   74 1   
    77   73   75 1   
    78   73   78 1   
    79   74   80 1   
    80   74   81 1   
    81   74   82 1   
    82   75   79 1   
    83   83   84 1   
    84   83   91 1   
    85   84   85 1   
    86   84   87 1   
    87   84   92 1   
    88   85   86 2   
    89   85  102 1   
    90   87   88 1   
    91   87   89 1   
    92   87   93 1   
    93   88   90 1   
    94   88   94 1   
    95   88   95 1   
    96   89   96 1   
    97   89   97 1   
    98   89   98 1   
    99   90   99 1   
   100   90  100 1   
   101   90  101 1   
   102  102  103 1   
   103  102  110 1   
   104  103  104 1   
   105  103  106 1   
   106  103  111 1   
   107  104  105 2   
   108  104  114 1   
   109  106  107 1   
   110  106  112 1   
   111  106  113 1   
   112  107  108 1   
   113  107  109 1   
   114  114  115 1   
   115  114  125 1   
   116  115  116 1   
   117  115  118 1   
   118  115  126 1   
   119  116  117 2   
   120  116  134 1   
   121  118  119 1   
   122  118  127 1   
   123  118  128 1   
   124  119  120 ar  
   125  119  121 ar  
   126  120  122 ar  
   127  120  129 1   
   128  121  123 ar  
   129  121  130 1   
   130  122  124 ar  
   131  122  131 1   
   132  123  124 ar  
   133  123  132 1   
   134  124  133 1   
   135  134  135 1   
   136  134  140 1   
   137  135  136 1   
   138  135  138 1   
   139  135  141 1   
   140  136  137 2   
   141  136  148 1   
   142  138  139 1   
   143  138  142 1   
   144  138  143 1   
   145  139  140 1   
   146  139  144 1   
   147  139  145 1   
   148  140  146 1   
   149  140  147 1   
   150  148  149 1   
   151  148  157 1   
   152  149  150 1   
   153  149  152 1   
   154  149  158 1   
   155  150  151 2   
   156  150  163 1   
   157  152  153 1   
   158  152  159 1   
   159  152  160 1   
   160  153  154 1   
   161  153  161 1   
   162  153  162 1   
   163  154  155 1   
   164  154  156 1   
   165  163  164 1   
   166  163  168 1   
   167  164  165 1   
   168  164  166 1   
   169  164  167 1   
   170  170  171 1   
   171  170  172 1   
   172  173  174 1   
   173  173  175 1   
   174  176  177 1   
   175  176  178 1   
   176  179  180 1   
   177  179  181 1   
@<TRIPOS>SUBSTRUCTURE
     1 MOL         1 TEMP              0 ****  ****    0 ROOT
