@<TRIPOS>MOLECULE
MOL
  191   184     1     0     0
SMALL
resp


@<TRIPOS>ATOM
      1 C1          1.5410    1.2150    2.1440 c3        1 MOL     -0.360584
      2 C2          2.8620    0.8790    1.4390 c         1 MOL      0.644796
      3 O1          3.0180    1.0250    0.2100 o         1 MOL     -0.546897
      4 H1          0.9090    0.3260    2.1740 hc        1 MOL      0.098098
      5 H2          1.7450    1.5480    3.1620 hc        1 MOL      0.098098
      6 H3          1.0280    2.0070    1.5980 hc        1 MOL      0.098098
      7 N1          3.7840    0.2960    2.2100 n         1 MOL     -0.456994
      8 C3          5.1810    0.0480    1.8320 c3        1 MOL      0.060700
      9 C4          5.4890   -1.3910    1.3920 c         1 MOL      0.372591
     10 O2          6.5030   -1.5960    0.7500 o         1 MOL     -0.425796
     11 C5          6.1500    0.7060    2.8140 c3        1 MOL     -0.196985
     12 C6          6.0370    0.1460    4.1890 c         1 MOL      0.744182
     13 O3          5.3370   -0.8780    4.4760 o         1 MOL     -0.696638
     14 O4          6.6030    0.7690    5.0950 o         1 MOL     -0.696638
     15 H4          3.6300    0.2980    3.2080 hn        1 MOL      0.253822
     16 H5          5.3020    0.6870    0.9570 h1        1 MOL      0.039950
     17 H6          5.7990    1.7330    2.8910 hc        1 MOL      0.083692
     18 H7          7.1710    0.6850    2.4440 hc        1 MOL      0.083692
     19 N2          4.5970   -2.3450    1.6560 n         1 MOL     -0.241016
     20 C7          4.6630   -3.7710    1.3000 c3        1 MOL      0.054329
     21 C8          5.1360   -4.0420   -0.1110 c         1 MOL      0.495636
     22 O5          6.2630   -4.3390   -0.4260 o         1 MOL     -0.526867
     23 C9          5.5150   -4.4820    2.4310 c3        1 MOL     -0.489359
     24 C10         4.7400   -4.6040    3.7320 c3        1 MOL      0.422445
     25 C11         5.6470   -4.9900    4.9240 c3        1 MOL     -0.311841
     26 C12         6.8490   -4.0670    5.1330 c3        1 MOL      0.105405
     27 N3          6.5850   -2.8000    5.7090 n4        1 MOL     -0.246834
     28 H8          3.7270   -1.9770    2.0170 hn        1 MOL      0.199115
     29 H9          3.6230   -4.0780    1.3350 h1        1 MOL      0.080903
     30 H10         6.4250   -3.9140    2.5620 hc        1 MOL      0.150593
     31 H11         5.7260   -5.4980    2.0860 hc        1 MOL      0.150593
     32 H12         3.8970   -5.3030    3.7230 hc        1 MOL     -0.064341
     33 H13         4.3570   -3.6090    3.9750 hc        1 MOL     -0.064341
     34 H14         6.0290   -5.9920    4.7170 hc        1 MOL      0.079314
     35 H15         4.9520   -5.0410    5.7660 hc        1 MOL      0.079314
     36 H16         7.4030   -3.8970    4.1990 hx        1 MOL      0.058212
     37 H17         7.5500   -4.6000    5.7730 hx        1 MOL      0.058212
     38 H18         5.9090   -2.2320    5.2210 hn        1 MOL      0.270567
     39 H19         6.2440   -2.8570    6.6600 hn        1 MOL      0.270567
     40 H20         7.4050   -2.2040    5.7270 hn        1 MOL      0.270567
     41 N4          4.2660   -3.9330   -1.0820 n         1 MOL     -0.375675
     42 C13         4.5150   -4.0460   -2.5060 c3        1 MOL      0.143712
     43 C14         4.7450   -2.6700   -3.1020 c         1 MOL      0.395723
     44 O6          4.3910   -2.3460   -4.2650 o         1 MOL     -0.556291
     45 C15         3.4130   -4.8310   -3.2750 c3        1 MOL     -0.126542
     46 C16         1.9590   -4.4900   -2.8610 c         1 MOL      0.701181
     47 O7          1.0730   -4.2970   -3.7450 o         1 MOL     -0.736743
     48 O8          1.5580   -4.4250   -1.6570 o         1 MOL     -0.736743
     49 H21         3.3260   -3.7980   -0.7330 hn        1 MOL      0.214524
     50 H22         5.4420   -4.6080   -2.5450 h1        1 MOL      0.071364
     51 H23         3.5480   -5.8650   -2.9540 hc        1 MOL      0.040463
     52 H24         3.5870   -4.8580   -4.3490 hc        1 MOL      0.040463
     53 N5          5.0970   -1.6890   -2.2630 n         1 MOL     -0.187271
     54 C17         5.3050   -0.2420   -2.6130 c3        1 MOL     -0.015462
     55 C18         6.6010    0.2490   -2.0210 c         1 MOL      0.616547
     56 O9          7.5580   -0.4710   -1.8360 o         1 MOL     -0.528055
     57 H25         5.2540   -1.8600   -1.2840 hn        1 MOL      0.122149
     58 H26         4.3570    0.1920   -2.2750 h1        1 MOL      0.069852
     59 H27         5.3390   -0.1920   -3.7050 h1        1 MOL      0.069852
     60 N6          6.7390    1.5200   -1.7000 n         1 MOL     -0.564035
     61 C19         5.7830    2.6340   -1.8810 c3        1 MOL      0.272583
     62 C20         5.7620    3.6120   -0.6560 c         1 MOL      0.700226
     63 O10         6.7170    3.5720    0.1360 o         1 MOL     -0.563142
     64 C21         6.0070    3.3920   -3.2220 c3        1 MOL     -0.516169
     65 C22         7.3050    4.1340   -3.2770 c         1 MOL      0.785893
     66 N7          7.2790    5.4600   -3.4020 n         1 MOL     -0.879913
     67 O11         8.3760    3.5520   -3.1850 o         1 MOL     -0.546173
     68 H28         7.5310    1.7740   -1.1260 hn        1 MOL      0.325587
     69 H29         4.7890    2.1890   -1.9800 h1        1 MOL     -0.001505
     70 H30         5.1860    4.0980   -3.3120 hc        1 MOL      0.136167
     71 H31         6.0840    2.7000   -4.0670 hc        1 MOL      0.136167
     72 H32         6.4190    5.9290   -3.6610 hn        1 MOL      0.382512
     73 H33         8.1180    6.0230   -3.3200 hn        1 MOL      0.382512
     74 N8          4.8080    4.5010   -0.4520 n         1 MOL     -0.652584
     75 C23         3.5380    4.4140   -1.1100 c3        1 MOL      0.172346
     76 C24         2.4600    5.4800   -0.7230 c         1 MOL      0.582396
     77 O12         2.7360    6.5890   -0.2060 o         1 MOL     -0.530710
     78 H34         4.7620    5.0550    0.3920 hn        1 MOL      0.346105
     79 H35         3.0650    3.4460   -0.9800 h1        1 MOL     -0.014894
     80 H36         3.6630    4.6510   -2.1710 h1        1 MOL     -0.014894
     81 N9          1.1770    5.1390   -0.8910 n         1 MOL     -0.570279
     82 C25         0.0200    5.8140   -0.3340 c3        1 MOL      0.200300
     83 C26        -1.1160    4.7640   -0.0750 c         1 MOL      0.511026
     84 O13        -1.0880    3.6170   -0.5500 o         1 MOL     -0.497820
     85 C27        -0.5670    6.9700   -1.2480 c3        1 MOL     -0.144291
     86 C28        -1.7040    7.7420   -0.7210 ca        1 MOL      0.038101
     87 C29        -3.0030    7.4390   -1.0320 ca        1 MOL     -0.127012
     88 C30        -1.4720    8.7560    0.2640 ca        1 MOL     -0.127012
     89 C31        -4.0770    8.1000   -0.4330 ca        1 MOL     -0.276804
     90 C32        -2.5140    9.4650    0.8540 ca        1 MOL     -0.276804
     91 C33        -3.8410    9.1360    0.4850 ca        1 MOL      0.364361
     92 O14        -4.9330    9.6720    1.1000 oh        1 MOL     -0.505031
     93 H37         0.8690    4.2620   -1.2890 hn        1 MOL      0.271453
     94 H38         0.3950    6.3200    0.5580 h1        1 MOL      0.046011
     95 H39        -0.8340    6.4950   -2.1920 hc        1 MOL      0.071094
     96 H40         0.2530    7.6560   -1.4570 hc        1 MOL      0.071094
     97 H41        -3.2070    6.6120   -1.6910 ha        1 MOL      0.125595
     98 H42        -0.4370    8.9730    0.4870 ha        1 MOL      0.125595
     99 H43        -5.1050    7.8280   -0.6120 ha        1 MOL      0.147805
    100 H44        -2.3590   10.2140    1.6130 ha        1 MOL      0.147805
    101 H45        -4.7430   10.2120    1.8760 ho        1 MOL      0.374037
    102 N10        -2.0910    5.0990    0.8070 n         1 MOL     -0.433357
    103 C34        -3.0960    4.1720    1.1930 c3        1 MOL      0.085744
    104 C35        -4.1790    3.8160    0.1850 c         1 MOL      0.431683
    105 O15        -4.6540    4.6210   -0.5490 o         1 MOL     -0.423452
    106 C36        -3.8050    4.5260    2.5690 c3        1 MOL      0.115263
    107 C37        -2.9870    4.2700    3.8310 c3        1 MOL     -0.115302
    108 C38        -4.4520    5.9630    2.5720 c3        1 MOL     -0.078998
    109 C39        -3.5990    4.3330    5.3080 c3        1 MOL     -0.244214
    110 H46        -2.0230    5.9610    1.3330 hn        1 MOL      0.203283
    111 H47        -2.5830    3.2310    1.4130 h1        1 MOL      0.070408
    112 H48        -4.6650    3.8610    2.6560 hc        1 MOL      0.002760
    113 H49        -2.3480    5.1520    3.8880 hc        1 MOL      0.040912
    114 H50        -2.2630    3.5000    3.5530 hc        1 MOL      0.040912
    115 H51        -3.8730    6.7800    2.1460 hc        1 MOL      0.025743
    116 H52        -5.3940    6.0370    2.0220 hc        1 MOL      0.025743
    117 H53        -4.5770    6.1920    3.6340 hc        1 MOL      0.025743
    118 H54        -2.7710    4.3290    6.0080 hc        1 MOL      0.081187
    119 H55        -4.0600    5.2800    5.5910 hc        1 MOL      0.081187
    120 H56        -4.3160    3.5490    5.5440 hc        1 MOL      0.081187
    121 N11        -4.6400    2.5700    0.2160 n         1 MOL     -0.419583
    122 C40        -5.7700    2.0730   -0.6250 c3        1 MOL      0.204411
    123 C41        -5.5730    0.6520   -1.1380 c         1 MOL      0.446057
    124 O16        -4.7740   -0.1320   -0.6140 o         1 MOL     -0.473240
    125 C42        -7.1230    2.0970    0.0930 c3        1 MOL      0.201979
    126 O17        -7.1920    3.2470    0.8730 oh        1 MOL     -0.566429
    127 H57        -3.9840    1.9340    0.6600 hn        1 MOL      0.211936
    128 H58        -5.9270    2.7400   -1.4750 h1        1 MOL      0.017743
    129 H59        -7.1200    1.3260    0.8690 h1        1 MOL     -0.018162
    130 H60        -7.9070    1.8570   -0.6270 h1        1 MOL     -0.018162
    131 H61        -8.0590    3.3580    1.2590 ho        1 MOL      0.401268
    132 N12        -6.2850    0.3900   -2.2750 n         1 MOL     -0.511839
    133 C43        -6.2390   -0.8010   -3.0990 c3        1 MOL      0.229270
    134 C44        -6.4550   -2.0570   -2.2940 c         1 MOL      0.550535
    135 O18        -5.7540   -3.0720   -2.4700 o         1 MOL     -0.550366
    136 C45        -4.9640   -0.8590   -3.9660 c3        1 MOL     -0.360644
    137 H62        -6.8770    1.1520   -2.5650 hn        1 MOL      0.306527
    138 H63        -7.0850   -0.7200   -3.7770 h1        1 MOL      0.044063
    139 H64        -5.1220   -1.5530   -4.8000 hc        1 MOL      0.110670
    140 H65        -4.7570    0.1650   -4.2910 hc        1 MOL      0.110670
    141 H66        -4.1510   -1.1380   -3.2950 hc        1 MOL      0.110670
    142 N13        -7.4400   -2.0740   -1.4310 n         1 MOL     -0.492410
    143 C46        -7.9570   -3.0970   -0.5100 c3        1 MOL      0.449799
    144 C47        -6.8510   -3.9960    0.0650 c         1 MOL      0.334205
    145 O19        -6.6850   -5.1850   -0.3290 o         1 MOL     -0.460977
    146 C48        -9.0510   -3.8090   -1.2850 c3        1 MOL     -0.324498
    147 H67        -7.9000   -1.1720   -1.3780 hn        1 MOL      0.197210
    148 H68        -8.5020   -2.5870    0.2850 h1        1 MOL     -0.001738
    149 H69        -9.8240   -3.1050   -1.5930 hc        1 MOL      0.084556
    150 H70        -8.7280   -4.4260   -2.1310 hc        1 MOL      0.084556
    151 H71        -9.5770   -4.3990   -0.5320 hc        1 MOL      0.084556
    152 N14        -6.0900   -3.4280    1.0200 n         1 MOL     -0.625077
    153 C49        -5.0610   -4.1020    1.7380 c3        1 MOL      0.517885
    154 C50        -5.5850   -4.7710    3.0420 c         1 MOL      0.411304
    155 O20        -5.3740   -5.9670    3.2100 o         1 MOL     -0.483436
    156 C51        -3.9210   -3.0730    2.0280 c3        1 MOL      0.012667
    157 C52        -2.6290   -3.6360    2.5570 c3        1 MOL     -0.142470
    158 C53        -1.8880   -4.4690    1.4700 c         1 MOL      0.745927
    159 O21        -1.4130   -3.8030    0.5230 o         1 MOL     -0.725042
    160 O22        -1.9750   -5.7140    1.4550 o         1 MOL     -0.725042
    161 H72        -6.2290   -2.4660    1.2740 hn        1 MOL      0.236805
    162 H73        -4.6620   -4.8770    1.0850 h1        1 MOL     -0.015417
    163 H74        -4.4500   -2.3830    2.6880 hc        1 MOL     -0.022752
    164 H75        -3.6700   -2.4930    1.1360 hc        1 MOL     -0.022752
    165 H76        -2.7950   -4.2240    3.4540 hc        1 MOL      0.013360
    166 H77        -1.9670   -2.8470    2.9030 hc        1 MOL      0.013360
    167 N15        -6.2840   -3.9980    3.8850 n         1 MOL     -0.331229
    168 C54        -6.5690   -4.4000    5.2450 c3        1 MOL     -0.382928
    169 H78        -7.4950   -4.9760    5.2670 h1        1 MOL      0.154303
    170 H79        -5.7520   -5.0140    5.6230 h1        1 MOL      0.154303
    171 H80        -6.6790   -3.5140    5.8700 h1        1 MOL      0.154303
    172 H81        -6.4830   -3.0530    3.5880 hn        1 MOL      0.257890
    173 Ca1        -1.1250   -3.8960   -2.1370 Ca        1 MOL      1.773521
    174 O23        -1.7440   -2.7190   -4.5330 oh        1 MOL     -0.848330
    175 H82        -1.5370   -1.8820   -4.9500 ho        1 MOL      0.416027
    176 H83        -1.7980   -3.3370   -5.2600 ho        1 MOL      0.416027
    177 O24        -3.6880   -4.7420   -1.8310 oh        1 MOL     -0.848330
    178 H84        -3.8950   -5.6300   -2.1040 ho        1 MOL      0.416027
    179 H85        -4.4970   -4.2560   -1.9780 ho        1 MOL      0.416027
    180 O25         0.3450   -1.6820   -2.3050 oh        1 MOL     -0.848330
    181 H86         0.7580   -1.6410   -3.1690 ho        1 MOL      0.416027
    182 H87         0.4130   -0.8010   -1.9600 ho        1 MOL      0.416027
    183 O26        -1.6290   -5.6260   -4.3210 oh        1 MOL     -0.848330
    184 H88        -2.4440   -6.1140   -4.3820 ho        1 MOL      0.416027
    185 H89        -1.0140   -6.1150   -4.8640 ho        1 MOL      0.416027
    186 O27        -2.4720   -1.6440   -1.2640 oh        1 MOL     -0.848330
    187 H90        -2.3400   -0.7080   -1.4180 ho        1 MOL      0.416027
    188 H91        -3.3390   -1.6970   -0.8490 ho        1 MOL      0.416027
    189 O28        -1.1220   -6.3120   -1.2020 oh        1 MOL     -0.848330
    190 H92        -1.2900   -7.2490   -1.3230 ho        1 MOL      0.416027
    191 H93        -1.4810   -6.1080   -0.3380 ho        1 MOL      0.416027
@<TRIPOS>BOND
     1    1    2 1   
     2    1    4 1   
     3    1    5 1   
     4    1    6 1   
     5    2    3 2   
     6    2    7 1   
     7    7    8 1   
     8    7   15 1   
     9    8    9 1   
    10    8   11 1   
    11    8   16 1   
    12    9   10 2   
    13    9   19 1   
    14   11   12 1   
    15   11   17 1   
    16   11   18 1   
    17   12   13 1   
    18   12   14 1   
    19   19   20 1   
    20   19   28 1   
    21   20   21 1   
    22   20   23 1   
    23   20   29 1   
    24   21   22 2   
    25   21   41 1   
    26   23   24 1   
    27   23   30 1   
    28   23   31 1   
    29   24   25 1   
    30   24   32 1   
    31   24   33 1   
    32   25   26 1   
    33   25   34 1   
    34   25   35 1   
    35   26   27 1   
    36   26   36 1   
    37   26   37 1   
    38   27   38 1   
    39   27   39 1   
    40   27   40 1   
    41   41   42 1   
    42   41   49 1   
    43   42   43 1   
    44   42   45 1   
    45   42   50 1   
    46   43   44 2   
    47   43   53 1   
    48   45   46 1   
    49   45   51 1   
    50   45   52 1   
    51   46   47 1   
    52   46   48 1   
    53   53   54 1   
    54   53   57 1   
    55   54   55 1   
    56   54   58 1   
    57   54   59 1   
    58   55   56 2   
    59   55   60 1   
    60   60   61 1   
    61   60   68 1   
    62   61   62 1   
    63   61   64 1   
    64   61   69 1   
    65   62   63 2   
    66   62   74 1   
    67   64   65 1   
    68   64   70 1   
    69   64   71 1   
    70   65   66 1   
    71   65   67 2   
    72   66   72 1   
    73   66   73 1   
    74   74   75 1   
    75   74   78 1   
    76   75   76 1   
    77   75   79 1   
    78   75   80 1   
    79   76   77 2   
    80   76   81 1   
    81   81   82 1   
    82   81   93 1   
    83   82   83 1   
    84   82   85 1   
    85   82   94 1   
    86   83   84 2   
    87   83  102 1   
    88   85   86 1   
    89   85   95 1   
    90   85   96 1   
    91   86   87 ar  
    92   86   88 ar  
    93   87   89 ar  
    94   87   97 1   
    95   88   90 ar  
    96   88   98 1   
    97   89   91 ar  
    98   89   99 1   
    99   90   91 ar  
   100   90  100 1   
   101   91   92 1   
   102   92  101 1   
   103  102  103 1   
   104  102  110 1   
   105  103  104 1   
   106  103  106 1   
   107  103  111 1   
   108  104  105 2   
   109  104  121 1   
   110  106  107 1   
   111  106  108 1   
   112  106  112 1   
   113  107  109 1   
   114  107  113 1   
   115  107  114 1   
   116  108  115 1   
   117  108  116 1   
   118  108  117 1   
   119  109  118 1   
   120  109  119 1   
   121  109  120 1   
   122  121  122 1   
   123  121  127 1   
   124  122  123 1   
   125  122  125 1   
   126  122  128 1   
   127  123  124 2   
   128  123  132 1   
   129  125  126 1   
   130  125  129 1   
   131  125  130 1   
   132  126  131 1   
   133  132  133 1   
   134  132  137 1   
   135  133  134 1   
   136  133  136 1   
   137  133  138 1   
   138  134  135 2   
   139  134  142 1   
   140  136  139 1   
   141  136  140 1   
   142  136  141 1   
   143  142  143 1   
   144  142  147 1   
   145  143  144 1   
   146  143  146 1   
   147  143  148 1   
   148  144  145 2   
   149  144  152 1   
   150  146  149 1   
   151  146  150 1   
   152  146  151 1   
   153  152  153 1   
   154  152  161 1   
   155  153  154 1   
   156  153  156 1   
   157  153  162 1   
   158  154  155 2   
   159  154  167 1   
   160  156  157 1   
   161  156  163 1   
   162  156  164 1   
   163  157  158 1   
   164  157  165 1   
   165  157  166 1   
   166  158  159 1   
   167  158  160 1   
   168  167  168 1   
   169  167  172 1   
   170  168  169 1   
   171  168  170 1   
   172  168  171 1   
   173  174  175 1   
   174  174  176 1   
   175  177  178 1   
   176  177  179 1   
   177  180  181 1   
   178  180  182 1   
   179  183  184 1   
   180  183  185 1   
   181  186  187 1   
   182  186  188 1   
   183  189  190 1   
   184  189  191 1   
@<TRIPOS>SUBSTRUCTURE
     1 MOL         1 TEMP              0 ****  ****    0 ROOT
