@<TRIPOS>MOLECULE
MOL
  178   175     1     0     0
SMALL
resp


@<TRIPOS>ATOM
      1 C1          1.8520   -5.6830    3.3330 c3        1 MOL     -0.403432
      2 C2          3.1760   -5.1470    2.7890 c         1 MOL      0.676336
      3 O1          3.7430   -5.6900    1.8930 o         1 MOL     -0.547398
      4 H1          1.0890   -5.6170    2.5580 hc        1 MOL      0.099672
      5 H2          1.9760   -6.7240    3.6320 hc        1 MOL      0.099672
      6 H3          1.5460   -5.0900    4.1950 hc        1 MOL      0.099672
      7 N1          3.6740   -4.0480    3.3990 n         1 MOL     -0.587109
      8 C3          4.9030   -3.3280    2.9110 c3        1 MOL      0.148256
      9 C4          4.7150   -2.9110    1.4600 c         1 MOL      0.441637
     10 O2          3.7880   -2.1550    1.1140 o         1 MOL     -0.489836
     11 C5          5.0240   -2.0490    3.7310 c3        1 MOL     -0.329689
     12 C6          6.0950   -1.1200    3.1660 c         1 MOL      0.775675
     13 O3          5.8060    0.0880    2.9620 o         1 MOL     -0.730871
     14 O4          7.2600   -1.5050    2.9270 o         1 MOL     -0.730871
     15 H4          3.1700   -3.6280    4.1670 hn        1 MOL      0.319319
     16 H5          5.7740   -3.9490    3.1440 h1        1 MOL      0.061663
     17 H6          5.3460   -2.2950    4.7430 hc        1 MOL      0.063156
     18 H7          4.0910   -1.4970    3.6880 hc        1 MOL      0.063156
     19 N2          5.4880   -3.5160    0.5760 n         1 MOL     -0.319942
     20 C7          5.3630   -3.3590   -0.8580 c3        1 MOL      0.325971
     21 C8          4.0730   -4.0300   -1.4450 c         1 MOL      0.517288
     22 O5          3.5810   -5.0570   -0.9230 o         1 MOL     -0.545538
     23 C9          6.5160   -4.0170   -1.4570 c3        1 MOL     -0.407126
     24 H8          6.1720   -4.1530    0.9640 hn        1 MOL      0.238632
     25 H9          5.3390   -2.2760   -0.9930 h1        1 MOL      0.016213
     26 H10         7.4370   -3.5020   -1.1900 hc        1 MOL      0.093471
     27 H11         6.5000   -5.0560   -1.1200 hc        1 MOL      0.093471
     28 H12         6.4000   -4.0970   -2.5360 hc        1 MOL      0.093471
     29 N3          3.4610   -3.4310   -2.4870 n         1 MOL     -0.367316
     30 C10         4.0920   -2.4110   -3.3450 c3        1 MOL      0.043503
     31 C11         4.1010   -0.9410   -2.7450 c         1 MOL      0.513661
     32 O6          3.0690   -0.4640   -2.2490 o         1 MOL     -0.593765
     33 C12         3.3850   -2.3920   -4.7600 c3        1 MOL     -0.363533
     34 C13         1.8490   -2.4690   -4.6280 c         1 MOL      0.875922
     35 O7          1.1990   -1.4750   -4.2530 o         1 MOL     -0.727236
     36 O8          1.3150   -3.5500   -5.0510 o         1 MOL     -0.727236
     37 H13         2.8750   -4.0580   -3.0290 hn        1 MOL      0.244397
     38 H14         5.1430   -2.5940   -3.5470 h1        1 MOL      0.036066
     39 H15         3.7620   -3.2480   -5.3120 hc        1 MOL      0.065528
     40 H16         3.5540   -1.4310   -5.2370 hc        1 MOL      0.065528
     41 N4          5.1810   -0.2330   -2.7390 n         1 MOL     -0.384751
     42 C14         5.3480    1.1220   -2.1980 c3        1 MOL      0.103425
     43 C15         6.0980    0.9960   -0.8560 c         1 MOL      0.674908
     44 O9          6.4250   -0.1160   -0.4460 o         1 MOL     -0.513460
     45 H17         6.0270   -0.7080   -3.0210 hn        1 MOL      0.234413
     46 H18         4.3600    1.5840   -2.1070 h1        1 MOL      0.030877
     47 H19         5.9160    1.7360   -2.8960 h1        1 MOL      0.030877
     48 N5          6.4470    2.0200   -0.0710 n         1 MOL     -0.660632
     49 C16         6.2180    3.4850   -0.2160 c3        1 MOL      0.033631
     50 C17         5.5560    4.0520    1.0420 c         1 MOL      0.617741
     51 O10         5.7770    5.1900    1.4640 o         1 MOL     -0.569261
     52 C18         7.6290    4.0880   -0.6110 c3        1 MOL     -0.213357
     53 C19         8.1220    3.5600   -1.9310 c         1 MOL      0.644074
     54 N6          7.4510    3.9360   -3.0200 n         1 MOL     -0.819968
     55 O11         9.0630    2.7390   -1.9640 o         1 MOL     -0.546331
     56 H20         6.9850    1.7130    0.7260 hn        1 MOL      0.384280
     57 H21         5.4710    3.8340   -0.9280 h1        1 MOL      0.051170
     58 H22         8.3880    3.9290    0.1460 hc        1 MOL      0.079656
     59 H23         7.5610    5.1680   -0.7540 hc        1 MOL      0.079656
     60 H24         6.6870    4.5670   -2.8690 hn        1 MOL      0.381251
     61 H25         7.6960    3.5740   -3.9350 hn        1 MOL      0.381251
     62 N7          4.8500    3.2020    1.8280 n         1 MOL     -0.287368
     63 C20         4.1530    3.4250    3.0490 c3        1 MOL     -0.075700
     64 C21         2.7470    4.0900    2.9410 c         1 MOL      0.544340
     65 O12         2.3480    4.8890    3.7520 o         1 MOL     -0.560578
     66 H26         4.8770    2.2240    1.5660 hn        1 MOL      0.233803
     67 H27         4.7500    4.0430    3.7300 h1        1 MOL      0.089309
     68 H28         3.9350    2.4610    3.4960 h1        1 MOL      0.089309
     69 N8          2.0160    3.9340    1.8100 n         1 MOL     -0.351190
     70 C22         0.7390    4.6740    1.3670 c3        1 MOL      0.065381
     71 C23        -0.3340    3.7220    0.9350 c         1 MOL      0.348907
     72 O13        -0.0630    2.5380    0.6510 o         1 MOL     -0.399865
     73 C24         1.0140    5.7390    0.2520 c3        1 MOL      0.330851
     74 C25         2.0900    6.7840    0.5390 c3        1 MOL     -0.289866
     75 O14         1.3380    5.1320   -0.9910 oh        1 MOL     -0.589392
     76 H29         2.2960    3.2420    1.1390 hn        1 MOL      0.142128
     77 H30         0.4290    5.2510    2.2430 h1        1 MOL      0.069397
     78 H31         0.1120    6.3330    0.1230 h1        1 MOL     -0.036075
     79 H32         0.6900    4.4540   -1.2000 ho        1 MOL      0.383994
     80 H33         2.0640    7.5920   -0.1940 hc        1 MOL      0.082192
     81 H34         1.8120    7.3060    1.4550 hc        1 MOL      0.082192
     82 H35         3.0300    6.2540    0.4330 hc        1 MOL      0.082192
     83 N9         -1.5850    4.2240    0.9030 n         1 MOL     -0.400205
     84 C26        -2.8240    3.4380    0.7470 c3        1 MOL     -0.092911
     85 C27        -3.3420    3.4000   -0.7850 c         1 MOL      0.382236
     86 O15        -4.0230    4.3390   -1.3200 o         1 MOL     -0.575973
     87 C28        -3.9270    3.9140    1.7600 c3        1 MOL      0.148849
     88 C29        -5.1090    2.9790    1.6890 c3        1 MOL      0.166992
     89 C30        -3.4150    4.1880    3.1980 c3        1 MOL     -0.265517
     90 C31        -6.4170    3.4060    2.4440 c3        1 MOL     -0.288944
     91 H36        -1.7050    5.1960    1.1270 hn        1 MOL      0.283100
     92 H37        -2.6290    2.4250    1.0990 h1        1 MOL      0.333893
     93 H38        -4.2150    4.9050    1.4260 hc        1 MOL     -0.008873
     94 H39        -4.7950    1.9640    1.9400 hc        1 MOL     -0.038423
     95 H40        -5.3390    2.8320    0.6340 hc        1 MOL     -0.038423
     96 H41        -2.4620    4.7210    3.1130 hc        1 MOL      0.051755
     97 H42        -4.1300    4.8000    3.7370 hc        1 MOL      0.051755
     98 H43        -3.3010    3.2750    3.7830 hc        1 MOL      0.051755
     99 H44        -6.7150    4.3710    2.0300 hc        1 MOL      0.062409
    100 H45        -7.2010    2.6970    2.1930 hc        1 MOL      0.062409
    101 H46        -6.2330    3.3770    3.5180 hc        1 MOL      0.062409
    102 N10        -3.2490    2.2350   -1.3990 n         1 MOL     -0.027050
    103 C32        -3.8130    1.7390   -2.6740 c3        1 MOL     -0.079249
    104 C33        -4.8980    0.6250   -2.4890 c         1 MOL      0.255717
    105 O16        -5.5670    0.2570   -3.4890 o         1 MOL     -0.489962
    106 C34        -2.7080    1.2120   -3.6550 c3        1 MOL     -0.256481
    107 C35        -1.6520    0.4100   -2.9300 c         1 MOL      0.853000
    108 O17        -0.7010    0.9990   -2.3080 o         1 MOL     -0.764857
    109 O18        -1.5710   -0.7900   -3.1640 o         1 MOL     -0.764857
    110 H47        -2.7410    1.4870   -0.9600 hn        1 MOL      0.040865
    111 H48        -4.2810    2.5540   -3.2340 h1        1 MOL      0.145823
    112 H49        -2.2000    2.0620   -4.1050 hc        1 MOL      0.083673
    113 H50        -3.0700    0.5280   -4.4320 hc        1 MOL      0.083673
    114 N11        -5.0810    0.0510   -1.2750 n         1 MOL     -0.010279
    115 C36        -6.1630   -0.8440   -0.9290 c3        1 MOL      0.444272
    116 C37        -5.7590   -2.0620   -0.0120 c         1 MOL      0.151934
    117 O19        -6.4150   -2.2930    1.0130 o         1 MOL     -0.459663
    118 C38        -7.2730    0.0590   -0.4260 c3        1 MOL     -0.464134
    119 C39        -8.1520    0.7570   -1.4070 ca        1 MOL      0.350543
    120 C40        -8.1580    2.1470   -1.5020 ca        1 MOL     -0.258407
    121 C41        -9.1500    0.0150   -2.0990 ca        1 MOL     -0.258407
    122 C42        -8.9790    2.8230   -2.4450 ca        1 MOL     -0.150011
    123 C43        -9.9590    0.7180   -3.0460 ca        1 MOL     -0.150011
    124 C44        -9.8420    2.1460   -3.2700 ca        1 MOL     -0.065507
    125 H51        -4.5750    0.3830   -0.4670 hn        1 MOL      0.053170
    126 H52        -6.4380   -1.1420   -1.9400 h1        1 MOL     -0.054919
    127 H53        -6.8520    0.7640    0.2950 hc        1 MOL      0.093918
    128 H54        -7.9440   -0.6160    0.1090 hc        1 MOL      0.093918
    129 H55        -7.4310    2.6940   -0.9040 ha        1 MOL      0.152599
    130 H56        -9.1130   -1.0610   -2.0350 ha        1 MOL      0.152599
    131 H57        -8.8510    3.9020   -2.4880 ha        1 MOL      0.115101
    132 H58       -10.5880    0.1810   -3.7310 ha        1 MOL      0.115101
    133 H59       -10.5040    2.6090   -3.9910 ha        1 MOL      0.082536
    134 N12        -4.6490   -2.8350   -0.3660 n         1 MOL     -0.030635
    135 C45        -4.1670   -3.9610    0.4210 c3        1 MOL      0.039463
    136 C46        -3.8330   -3.6540    1.9000 c         1 MOL      0.146716
    137 O20        -4.0620   -4.4390    2.8480 o         1 MOL     -0.505848
    138 C47        -2.8930   -4.4750   -0.2690 c3        1 MOL     -0.076308
    139 C48        -3.4720   -4.2090   -1.7230 c3        1 MOL     -0.129175
    140 C49        -4.0720   -2.8190   -1.6320 c3        1 MOL     -0.079210
    141 H60        -4.8880   -4.7730    0.3820 h1        1 MOL      0.063657
    142 H61        -2.0550   -3.8240   -0.0170 hc        1 MOL      0.067484
    143 H62        -2.6550   -5.4970   -0.0010 hc        1 MOL      0.067484
    144 H63        -2.7120   -4.3710   -2.4860 hc        1 MOL      0.045891
    145 H64        -4.3110   -4.8980   -1.8320 hc        1 MOL      0.045891
    146 H65        -3.2840   -2.0740   -1.5340 h1        1 MOL      0.107364
    147 H66        -4.7130   -2.5820   -2.4870 h1        1 MOL      0.107364
    148 N13        -3.6000   -2.4130    2.1240 n         1 MOL      0.251968
    149 C50        -3.4240   -1.8400    3.4520 c3        1 MOL     -0.171034
    150 C51        -4.7560   -1.8910    4.2010 c         1 MOL      0.408634
    151 O21        -4.8550   -2.6040    5.2330 o         1 MOL     -0.524269
    152 C52        -2.8530   -0.4120    3.4100 c3        1 MOL      0.178645
    153 C53        -1.7070   -0.0320    2.4690 c3        1 MOL     -0.012548
    154 C54        -1.8930   -0.3930    1.0210 c         1 MOL      0.347409
    155 O22        -0.9840   -1.0310    0.4740 o         1 MOL     -0.597743
    156 O23        -2.9650   -0.1480    0.4970 o         1 MOL     -0.597743
    157 H67        -3.4790   -1.8510    1.2970 hn        1 MOL      0.053478
    158 H68        -2.6580   -2.5140    3.8530 h1        1 MOL      0.085206
    159 H69        -2.5290   -0.2250    4.4340 hc        1 MOL     -0.059471
    160 H70        -3.6220    0.3510    3.2710 hc        1 MOL     -0.059471
    161 H71        -0.8020   -0.5220    2.8160 hc        1 MOL     -0.006428
    162 H72        -1.5590    1.0460    2.5880 hc        1 MOL     -0.006428
    163 N14        -5.8130   -1.1570    3.7300 n         1 MOL     -0.082742
    164 C55        -7.1380   -1.2270    4.3490 c3        1 MOL     -0.202190
    165 H73        -7.9020   -1.2300    3.5720 h1        1 MOL      0.078907
    166 H74        -7.2160   -2.1410    4.9390 h1        1 MOL      0.078907
    167 H75        -7.2830   -0.3630    4.9970 h1        1 MOL      0.078907
    168 H76        -5.5930   -0.3680    3.1330 hn        1 MOL      0.174607
    169 Ca1         0.4970   -1.1360   -1.6820 Ca        1 MOL      1.700038
    170 O24        -0.1070   -3.7300   -1.8530 oh        1 MOL     -0.853985
    171 H77         0.4910   -4.2390   -1.2910 ho        1 MOL      0.406399
    172 H78        -0.5150   -4.3770   -2.4180 ho        1 MOL      0.406399
    173 O25         1.5060   -2.4730    0.2760 oh        1 MOL     -0.853985
    174 H79         2.4160   -2.4600    0.5770 ho        1 MOL      0.406399
    175 H80         1.0170   -2.8520    1.0120 ho        1 MOL      0.406399
    176 O26         1.5630    0.6170   -0.1130 oh        1 MOL     -0.853985
    177 H81         0.9700    1.2830    0.2410 ho        1 MOL      0.406399
    178 H82         2.4140    0.8130    0.2730 ho        1 MOL      0.406399
@<TRIPOS>BOND
     1    1    2 1   
     2    1    4 1   
     3    1    5 1   
     4    1    6 1   
     5    2    3 2   
     6    2    7 1   
     7    7    8 1   
     8    7   15 1   
     9    8    9 1   
    10    8   11 1   
    11    8   16 1   
    12    9   10 2   
    13    9   19 1   
    14   11   12 1   
    15   11   17 1   
    16   11   18 1   
    17   12   13 1   
    18   12   14 1   
    19   19   20 1   
    20   19   24 1   
    21   20   21 1   
    22   20   23 1   
    23   20   25 1   
    24   21   22 2   
    25   21   29 1   
    26   23   26 1   
    27   23   27 1   
    28   23   28 1   
    29   29   30 1   
    30   29   37 1   
    31   30   31 1   
    32   30   33 1   
    33   30   38 1   
    34   31   32 2   
    35   31   41 1   
    36   33   34 1   
    37   33   39 1   
    38   33   40 1   
    39   34   35 1   
    40   34   36 1   
    41   41   42 1   
    42   41   45 1   
    43   42   43 1   
    44   42   46 1   
    45   42   47 1   
    46   43   44 2   
    47   43   48 1   
    48   48   49 1   
    49   48   56 1   
    50   49   50 1   
    51   49   52 1   
    52   49   57 1   
    53   50   51 2   
    54   50   62 1   
    55   52   53 1   
    56   52   58 1   
    57   52   59 1   
    58   53   54 1   
    59   53   55 2   
    60   54   60 1   
    61   54   61 1   
    62   62   63 1   
    63   62   66 1   
    64   63   64 1   
    65   63   67 1   
    66   63   68 1   
    67   64   65 2   
    68   64   69 1   
    69   69   70 1   
    70   69   76 1   
    71   70   71 1   
    72   70   73 1   
    73   70   77 1   
    74   71   72 2   
    75   71   83 1   
    76   73   74 1   
    77   73   75 1   
    78   73   78 1   
    79   74   80 1   
    80   74   81 1   
    81   74   82 1   
    82   75   79 1   
    83   83   84 1   
    84   83   91 1   
    85   84   85 1   
    86   84   87 1   
    87   84   92 1   
    88   85   86 2   
    89   85  102 1   
    90   87   88 1   
    91   87   89 1   
    92   87   93 1   
    93   88   90 1   
    94   88   94 1   
    95   88   95 1   
    96   89   96 1   
    97   89   97 1   
    98   89   98 1   
    99   90   99 1   
   100   90  100 1   
   101   90  101 1   
   102  102  103 1   
   103  102  110 1   
   104  103  104 1   
   105  103  106 1   
   106  103  111 1   
   107  104  105 2   
   108  104  114 1   
   109  106  107 1   
   110  106  112 1   
   111  106  113 1   
   112  107  108 1   
   113  107  109 1   
   114  114  115 1   
   115  114  125 1   
   116  115  116 1   
   117  115  118 1   
   118  115  126 1   
   119  116  117 2   
   120  116  134 1   
   121  118  119 1   
   122  118  127 1   
   123  118  128 1   
   124  119  120 ar  
   125  119  121 ar  
   126  120  122 ar  
   127  120  129 1   
   128  121  123 ar  
   129  121  130 1   
   130  122  124 ar  
   131  122  131 1   
   132  123  124 ar  
   133  123  132 1   
   134  124  133 1   
   135  134  135 1   
   136  134  140 1   
   137  135  136 1   
   138  135  138 1   
   139  135  141 1   
   140  136  137 2   
   141  136  148 1   
   142  138  139 1   
   143  138  142 1   
   144  138  143 1   
   145  139  140 1   
   146  139  144 1   
   147  139  145 1   
   148  140  146 1   
   149  140  147 1   
   150  148  149 1   
   151  148  157 1   
   152  149  150 1   
   153  149  152 1   
   154  149  158 1   
   155  150  151 2   
   156  150  163 1   
   157  152  153 1   
   158  152  159 1   
   159  152  160 1   
   160  153  154 1   
   161  153  161 1   
   162  153  162 1   
   163  154  155 1   
   164  154  156 1   
   165  163  164 1   
   166  163  168 1   
   167  164  165 1   
   168  164  166 1   
   169  164  167 1   
   170  170  171 1   
   171  170  172 1   
   172  173  174 1   
   173  173  175 1   
   174  176  177 1   
   175  176  178 1   
@<TRIPOS>SUBSTRUCTURE
     1 MOL         1 TEMP              0 ****  ****    0 ROOT
