@<TRIPOS>MOLECULE
MOL
  181   177     1     0     0
SMALL
resp


@<TRIPOS>ATOM
      1 C1          3.5230   -1.8690    4.2360 c3        1 MOL     -0.526788
      2 C2          4.6650   -0.8640    4.1180 c         1 MOL      0.761323
      3 O1          4.6340    0.2700    4.5970 o         1 MOL     -0.611201
      4 H1          3.2110   -1.9430    5.2780 hc        1 MOL      0.136009
      5 H2          2.6820   -1.5370    3.6280 hc        1 MOL      0.136009
      6 H3          3.8610   -2.8460    3.8890 hc        1 MOL      0.136009
      7 N1          5.7670   -1.4060    3.6010 n         1 MOL     -0.503387
      8 C3          6.9760   -0.6420    3.2940 c3        1 MOL      0.033392
      9 C4          6.7640   -0.1480    1.8200 c         1 MOL      0.465570
     10 O2          6.4110   -1.0340    0.9860 o         1 MOL     -0.459696
     11 C5          8.2100   -1.5710    3.4000 c3        1 MOL     -0.127337
     12 C6          9.4550   -1.0010    2.7380 c         1 MOL      0.697148
     13 O3          9.9370   -0.0480    3.3670 o         1 MOL     -0.729034
     14 O4          9.7970   -1.4280    1.6180 o         1 MOL     -0.729034
     15 H4          5.7940   -2.2740    3.0850 hn        1 MOL      0.252846
     16 H5          7.1710    0.1470    4.0150 h1        1 MOL      0.080876
     17 H6          7.9590   -2.5160    2.9040 hc        1 MOL      0.002640
     18 H7          8.4470   -1.9440    4.3940 hc        1 MOL      0.002640
     19 N2          7.0380    1.1150    1.5280 n         1 MOL     -0.424449
     20 C7          6.9240    1.6760    0.1740 c3        1 MOL      0.181110
     21 C8          5.6440    1.3350   -0.4950 c         1 MOL      0.356189
     22 O5          4.5580    1.3590    0.1150 o         1 MOL     -0.492476
     23 C9          7.1750    3.1450    0.3410 c3        1 MOL     -0.392322
     24 H8          7.4470    1.7390    2.1960 hn        1 MOL      0.315877
     25 H9          7.7510    1.2370   -0.3860 h1        1 MOL      0.089337
     26 H10         8.1260    3.3090    0.8430 hc        1 MOL      0.110251
     27 H11         7.1170    3.6690   -0.6120 hc        1 MOL      0.110251
     28 H12         6.4130    3.5570    1.0010 hc        1 MOL      0.110251
     29 N3          5.6890    0.9820   -1.7470 n         1 MOL     -0.323925
     30 C10         4.5350    0.6020   -2.6020 c3        1 MOL      0.178067
     31 C11         3.8940    1.7670   -3.3890 c         1 MOL      0.575862
     32 O6          2.8230    1.5870   -3.8810 o         1 MOL     -0.524997
     33 C12         4.8920   -0.5790   -3.4150 c3        1 MOL     -0.047066
     34 C13         3.6770   -1.4830   -3.6490 c         1 MOL      0.548399
     35 O7          3.4840   -1.9870   -4.8030 o         1 MOL     -0.633454
     36 O8          2.8600   -1.6820   -2.6680 o         1 MOL     -0.633454
     37 H13         6.6140    1.0530   -2.1260 hn        1 MOL      0.172143
     38 H14         3.8110    0.2680   -1.8490 h1        1 MOL      0.009139
     39 H15         5.6380   -1.1980   -2.9120 hc        1 MOL     -0.003584
     40 H16         5.3550   -0.2480   -4.3440 hc        1 MOL     -0.003584
     41 N4          4.3970    2.9930   -3.4700 n         1 MOL     -0.490505
     42 C14         3.9390    4.0940   -4.3750 c3        1 MOL     -0.100236
     43 C15         2.6510    4.7970   -3.9150 c         1 MOL      0.577530
     44 O9          2.4780    5.9520   -4.3270 o         1 MOL     -0.572424
     45 H17         5.3490    3.0200   -3.1570 hn        1 MOL      0.278070
     46 H18         3.7070    3.7400   -5.3770 h1        1 MOL      0.099619
     47 H19         4.6950    4.8650   -4.5120 h1        1 MOL      0.099619
     48 N5          1.8430    4.2030   -3.0060 n         1 MOL     -0.455844
     49 C16         0.4790    4.6040   -2.6480 c3        1 MOL      0.159092
     50 C17         0.3440    4.6670   -1.1430 c         1 MOL      0.362974
     51 O10         0.3400    3.6100   -0.4120 o         1 MOL     -0.378020
     52 C18        -0.5870    3.6090   -3.2210 c3        1 MOL     -0.371192
     53 C19        -0.5070    3.4630   -4.7200 c         1 MOL      0.782921
     54 N6          0.2270    2.6000   -5.3040 n         1 MOL     -0.777693
     55 O11        -1.1730    4.1880   -5.4800 o         1 MOL     -0.643638
     56 H20         2.0780    3.2760   -2.6780 hn        1 MOL      0.275035
     57 H21         0.2820    5.6170   -3.0130 h1        1 MOL      0.054179
     58 H22        -1.5900    3.8730   -2.8750 hc        1 MOL      0.119191
     59 H23        -0.3800    2.6480   -2.7450 hc        1 MOL      0.119191
     60 H24         0.8220    2.0540   -4.6980 hn        1 MOL      0.372065
     61 H25         0.2820    2.4680   -6.3080 hn        1 MOL      0.372065
     62 N7          0.2450    5.9160   -0.6390 n         1 MOL     -0.443642
     63 C20        -0.4500    6.2360    0.6060 c3        1 MOL      0.048859
     64 C21        -1.9370    5.6670    0.8330 c         1 MOL      0.323800
     65 O12        -2.5270    5.1490   -0.0920 o         1 MOL     -0.339452
     66 H26         0.3280    6.6380   -1.3370 hn        1 MOL      0.309347
     67 H27        -0.4140    7.3180    0.7380 h1        1 MOL      0.055532
     68 H28         0.1700    5.8790    1.4140 h1        1 MOL      0.055532
     69 N8         -2.5350    5.8970    2.0530 n         1 MOL     -0.262690
     70 C22        -3.9370    5.6480    2.3680 c3        1 MOL     -0.280446
     71 C23        -4.2600    4.1890    2.6720 c         1 MOL      0.461677
     72 O13        -5.4010    3.8190    2.3560 o         1 MOL     -0.534106
     73 C24        -4.3310    6.4580    3.6300 c3        1 MOL      0.538752
     74 C25        -3.6070    6.2930    4.9510 c3        1 MOL     -0.506007
     75 O14        -4.1600    7.7520    3.1940 oh        1 MOL     -0.657283
     76 H29        -1.9780    6.3820    2.7440 hn        1 MOL      0.199092
     77 H30        -4.5510    5.8300    1.4840 h1        1 MOL      0.171149
     78 H31        -5.3850    6.3450    3.8760 h1        1 MOL      0.024368
     79 H32        -3.2650    8.0290    3.3720 ho        1 MOL      0.386901
     80 H33        -4.1630    6.8960    5.6690 hc        1 MOL      0.122157
     81 H34        -3.6760    5.2540    5.2720 hc        1 MOL      0.122157
     82 H35        -2.5990    6.7110    4.8240 hc        1 MOL      0.122157
     83 N9         -3.2270    3.3940    3.1110 n         1 MOL     -0.163816
     84 C26        -3.2140    1.9530    3.3160 c3        1 MOL      0.030069
     85 C27        -2.3420    1.3470    2.2390 c         1 MOL      0.513280
     86 O15        -1.3420    1.9460    1.7650 o         1 MOL     -0.541102
     87 C28        -2.7150    1.5040    4.6690 c3        1 MOL      0.181226
     88 C29        -3.5890    2.1410    5.7490 c3        1 MOL     -0.001650
     89 C30        -2.6140    0.0310    4.9400 c3        1 MOL     -0.377262
     90 C31        -5.0910    1.8870    5.7740 c3        1 MOL     -0.038001
     91 H36        -2.3450    3.8510    3.3230 hn        1 MOL      0.180384
     92 H37        -4.2010    1.5190    3.1540 h1        1 MOL      0.027910
     93 H38        -1.7770    2.0660    4.7000 hc        1 MOL     -0.017113
     94 H39        -3.5760    3.2210    5.6280 hc        1 MOL     -0.017976
     95 H40        -3.1460    1.8900    6.7050 hc        1 MOL     -0.017976
     96 H41        -3.5720   -0.3610    4.6110 hc        1 MOL      0.102797
     97 H42        -1.6790   -0.3520    4.5290 hc        1 MOL      0.102797
     98 H43        -2.4930   -0.1550    6.0090 hc        1 MOL      0.102797
     99 H44        -5.3560    0.8330    5.8850 hc        1 MOL      0.004911
    100 H45        -5.5010    2.3340    6.6820 hc        1 MOL      0.004911
    101 H46        -5.6160    2.3510    4.9390 hc        1 MOL      0.004911
    102 N10        -2.6840    0.1640    1.8210 n         1 MOL     -0.595049
    103 C32        -1.9000   -0.5460    0.8150 c3        1 MOL      0.548807
    104 C33        -2.7710   -1.2030   -0.2790 c         1 MOL      0.241587
    105 O16        -2.4580   -2.3190   -0.7930 o         1 MOL     -0.365429
    106 C34        -0.9920   -1.5280    1.4850 c3        1 MOL     -0.192113
    107 C35         0.1360   -2.1120    0.6120 c         1 MOL      0.716762
    108 O17         0.2970   -1.7910   -0.5830 o         1 MOL     -0.731113
    109 O18         0.9320   -2.8770    1.1100 o         1 MOL     -0.731113
    110 H47        -3.4070   -0.2710    2.3780 hn        1 MOL      0.273623
    111 H48        -1.3080    0.2010    0.2910 h1        1 MOL     -0.002538
    112 H49        -1.5570   -2.3820    1.8550 hc        1 MOL      0.021390
    113 H50        -0.5150   -1.0780    2.3420 hc        1 MOL      0.021390
    114 N11        -3.8820   -0.5370   -0.6360 n         1 MOL     -0.251573
    115 C36        -4.9470   -1.0610   -1.4950 c3        1 MOL      0.007972
    116 C37        -5.4190   -2.4370   -1.0090 c         1 MOL      0.352141
    117 O19        -5.5010   -2.5680    0.1960 o         1 MOL     -0.525798
    118 C38        -6.0330    0.0520   -1.5920 c3        1 MOL     -0.202087
    119 C39        -5.5410    1.3820   -2.1950 ca        1 MOL     -0.071655
    120 C40        -5.3070    2.4720   -1.2770 ca        1 MOL      0.032818
    121 C41        -5.1750    1.4600   -3.5210 ca        1 MOL      0.032818
    122 C42        -4.9150    3.7150   -1.8020 ca        1 MOL     -0.257321
    123 C43        -4.8210    2.6770   -4.0690 ca        1 MOL     -0.257321
    124 C44        -4.6660    3.7570   -3.1700 ca        1 MOL      0.016082
    125 H51        -4.1200    0.3870   -0.3210 hn        1 MOL      0.212319
    126 H52        -4.4870   -1.1060   -2.4880 h1        1 MOL      0.076017
    127 H53        -6.3800    0.1690   -0.5630 hc        1 MOL      0.079888
    128 H54        -6.8090   -0.3440   -2.2310 hc        1 MOL      0.079888
    129 H55        -5.6120    2.3940   -0.2440 ha        1 MOL      0.065638
    130 H56        -5.2420    0.5560   -4.1000 ha        1 MOL      0.065638
    131 H57        -4.7300    4.5630   -1.1440 ha        1 MOL      0.154385
    132 H58        -4.4980    2.7970   -5.0950 ha        1 MOL      0.154385
    133 H59        -4.3080    4.7080   -3.5290 ha        1 MOL      0.065047
    134 N12        -5.6840   -3.4170   -1.8580 n         1 MOL      0.022561
    135 C45        -6.1290   -4.7070   -1.3880 c3        1 MOL      0.005350
    136 C46        -5.1120   -5.5110   -0.5500 c         1 MOL      0.372600
    137 O20        -5.5530   -6.4430    0.1300 o         1 MOL     -0.530144
    138 C47        -6.6310   -5.4340   -2.6730 c3        1 MOL     -0.052749
    139 C48        -5.8410   -4.7790   -3.8290 c3        1 MOL      0.023423
    140 C49        -5.6100   -3.3540   -3.3110 c3        1 MOL     -0.032804
    141 H60        -6.9310   -4.5270   -0.6780 h1        1 MOL      0.056703
    142 H61        -6.5690   -6.5180   -2.6270 hc        1 MOL      0.025428
    143 H62        -7.6990   -5.1910   -2.6980 hc        1 MOL      0.025428
    144 H63        -4.9410   -5.3610   -3.9900 hc        1 MOL      0.016150
    145 H64        -6.4770   -4.7410   -4.7110 hc        1 MOL      0.016150
    146 H65        -4.7030   -2.9290   -3.7560 h1        1 MOL      0.032199
    147 H66        -6.5170   -2.8210   -3.5970 h1        1 MOL      0.032199
    148 N13        -3.8330   -5.1860   -0.4550 n         1 MOL     -0.142243
    149 C50        -2.8800   -5.9690    0.4220 c3        1 MOL     -0.164488
    150 C51        -3.2670   -6.0430    1.9120 c         1 MOL      0.547514
    151 O21        -3.3290   -7.1480    2.4890 o         1 MOL     -0.567036
    152 C52        -1.4350   -5.4690    0.2720 c3        1 MOL     -0.103771
    153 C53        -0.9890   -5.5790   -1.1860 c3        1 MOL     -0.061033
    154 C54         0.5520   -5.3210   -1.3380 c         1 MOL      0.616351
    155 O22         1.2680   -5.6560   -0.3310 o         1 MOL     -0.696636
    156 O23         0.9810   -4.6980   -2.3160 o         1 MOL     -0.696636
    157 H67        -3.5130   -4.2900   -0.7960 hn        1 MOL      0.112048
    158 H68        -2.9650   -7.0380    0.2500 h1        1 MOL      0.116416
    159 H69        -0.7800   -6.0630    0.9250 hc        1 MOL      0.067255
    160 H70        -1.3600   -4.4440    0.6210 hc        1 MOL      0.067255
    161 H71        -1.5610   -4.8940   -1.8070 hc        1 MOL      0.023744
    162 H72        -1.2320   -6.5470   -1.6260 hc        1 MOL      0.023744
    163 N14        -3.6850   -4.9500    2.5100 n         1 MOL     -0.295363
    164 C55        -3.7730   -4.8140    4.0050 c3        1 MOL     -0.130786
    165 H73        -3.1560   -5.5790    4.4760 h1        1 MOL      0.072530
    166 H74        -3.4170   -3.8270    4.3020 h1        1 MOL      0.072530
    167 H75        -4.8090   -4.9380    4.3210 h1        1 MOL      0.072530
    168 H76        -3.7160   -4.1240    1.9280 hn        1 MOL      0.260440
    169 Ca1         2.6560   -3.2380   -0.6890 Ca        1 MOL      1.659754
    170 O24         3.8180   -4.3550    1.5680 oh        1 MOL     -0.789688
    171 H77         3.6550   -5.0400    2.2140 ho        1 MOL      0.385019
    172 H78         4.7600   -4.2010    1.6080 ho        1 MOL      0.385019
    173 O25         3.1010   -1.1850    0.8510 oh        1 MOL     -0.789688
    174 H79         2.3900   -0.7530    1.3260 ho        1 MOL      0.385019
    175 H80         3.6040   -0.4690    0.4840 ho        1 MOL      0.385019
    176 O26         3.9080   -5.1710   -2.1840 oh        1 MOL     -0.789688
    177 H81         4.6790   -5.6940   -1.9750 ho        1 MOL      0.385019
    178 H82         3.3000   -5.7810   -2.5930 ho        1 MOL      0.385019
    179 O27         5.3110   -3.0220   -0.6400 oh        1 MOL     -0.789688
    180 H83         5.9070   -2.4360   -0.1760 ho        1 MOL      0.385019
    181 H84         5.7650   -3.8550   -0.6660 ho        1 MOL      0.385019
@<TRIPOS>BOND
     1    1    2 1   
     2    1    4 1   
     3    1    5 1   
     4    1    6 1   
     5    2    3 2   
     6    2    7 1   
     7    7    8 1   
     8    7   15 1   
     9    8    9 1   
    10    8   11 1   
    11    8   16 1   
    12    9   10 2   
    13    9   19 1   
    14   11   12 1   
    15   11   17 1   
    16   11   18 1   
    17   12   13 1   
    18   12   14 1   
    19   19   20 1   
    20   19   24 1   
    21   20   21 1   
    22   20   23 1   
    23   20   25 1   
    24   21   22 2   
    25   21   29 1   
    26   23   26 1   
    27   23   27 1   
    28   23   28 1   
    29   29   30 1   
    30   29   37 1   
    31   30   31 1   
    32   30   33 1   
    33   30   38 1   
    34   31   32 2   
    35   31   41 1   
    36   33   34 1   
    37   33   39 1   
    38   33   40 1   
    39   34   35 1   
    40   34   36 1   
    41   41   42 1   
    42   41   45 1   
    43   42   43 1   
    44   42   46 1   
    45   42   47 1   
    46   43   44 2   
    47   43   48 1   
    48   48   49 1   
    49   48   56 1   
    50   49   50 1   
    51   49   52 1   
    52   49   57 1   
    53   50   51 2   
    54   50   62 1   
    55   52   53 1   
    56   52   58 1   
    57   52   59 1   
    58   53   54 1   
    59   53   55 2   
    60   54   60 1   
    61   54   61 1   
    62   62   63 1   
    63   62   66 1   
    64   63   64 1   
    65   63   67 1   
    66   63   68 1   
    67   64   65 2   
    68   64   69 1   
    69   69   70 1   
    70   69   76 1   
    71   70   71 1   
    72   70   73 1   
    73   70   77 1   
    74   71   72 2   
    75   71   83 1   
    76   73   74 1   
    77   73   75 1   
    78   73   78 1   
    79   74   80 1   
    80   74   81 1   
    81   74   82 1   
    82   75   79 1   
    83   83   84 1   
    84   83   91 1   
    85   84   85 1   
    86   84   87 1   
    87   84   92 1   
    88   85   86 2   
    89   85  102 1   
    90   87   88 1   
    91   87   89 1   
    92   87   93 1   
    93   88   90 1   
    94   88   94 1   
    95   88   95 1   
    96   89   96 1   
    97   89   97 1   
    98   89   98 1   
    99   90   99 1   
   100   90  100 1   
   101   90  101 1   
   102  102  103 1   
   103  102  110 1   
   104  103  104 1   
   105  103  106 1   
   106  103  111 1   
   107  104  105 2   
   108  104  114 1   
   109  106  107 1   
   110  106  112 1   
   111  106  113 1   
   112  107  108 1   
   113  107  109 1   
   114  114  115 1   
   115  114  125 1   
   116  115  116 1   
   117  115  118 1   
   118  115  126 1   
   119  116  117 2   
   120  116  134 1   
   121  118  119 1   
   122  118  127 1   
   123  118  128 1   
   124  119  120 ar  
   125  119  121 ar  
   126  120  122 ar  
   127  120  129 1   
   128  121  123 ar  
   129  121  130 1   
   130  122  124 ar  
   131  122  131 1   
   132  123  124 ar  
   133  123  132 1   
   134  124  133 1   
   135  134  135 1   
   136  134  140 1   
   137  135  136 1   
   138  135  138 1   
   139  135  141 1   
   140  136  137 2   
   141  136  148 1   
   142  138  139 1   
   143  138  142 1   
   144  138  143 1   
   145  139  140 1   
   146  139  144 1   
   147  139  145 1   
   148  140  146 1   
   149  140  147 1   
   150  148  149 1   
   151  148  157 1   
   152  149  150 1   
   153  149  152 1   
   154  149  158 1   
   155  150  151 2   
   156  150  163 1   
   157  152  153 1   
   158  152  159 1   
   159  152  160 1   
   160  153  154 1   
   161  153  161 1   
   162  153  162 1   
   163  154  155 1   
   164  154  156 1   
   165  163  164 1   
   166  163  168 1   
   167  164  165 1   
   168  164  166 1   
   169  164  167 1   
   170  170  171 1   
   171  170  172 1   
   172  173  174 1   
   173  173  175 1   
   174  176  177 1   
   175  176  178 1   
   176  179  180 1   
   177  179  181 1   
@<TRIPOS>SUBSTRUCTURE
     1 MOL         1 TEMP              0 ****  ****    0 ROOT
