@<TRIPOS>MOLECULE
MOL
  188   182     1     0     0
SMALL
resp


@<TRIPOS>ATOM
      1 C1         -5.6340    1.0710   -3.7080 c3        1 MOL     -0.535749
      2 C2         -6.3520    1.3670   -2.3530 c         1 MOL      0.641433
      3 O1         -5.8010    1.3460   -1.2970 o         1 MOL     -0.415334
      4 H1         -4.6710    1.5810   -3.7280 hc        1 MOL      0.134553
      5 H2         -5.4780   -0.0030   -3.8090 hc        1 MOL      0.134553
      6 H3         -6.2510    1.4290   -4.5320 hc        1 MOL      0.134553
      7 N1         -7.6660    1.4140   -2.3570 n         1 MOL     -0.526186
      8 C3         -8.5790    1.3940   -1.2180 c3        1 MOL     -0.109711
      9 C4         -8.2460    0.1490   -0.2930 c         1 MOL      0.360905
     10 O2         -7.8090    0.2040    0.8380 o         1 MOL     -0.413521
     11 C5         -8.6030    2.8020   -0.5580 c3        1 MOL     -0.303014
     12 C6         -9.4320    2.8730    0.7450 c         1 MOL      0.719697
     13 O3        -10.5400    2.2630    0.7580 o         1 MOL     -0.652969
     14 O4         -9.1500    3.7910    1.5470 o         1 MOL     -0.652969
     15 H4         -8.1330    1.5630   -3.2510 hn        1 MOL      0.322335
     16 H5         -9.5700    1.3290   -1.6740 h1        1 MOL      0.115221
     17 H6         -9.0490    3.4480   -1.3240 hc        1 MOL      0.128399
     18 H7         -7.5650    3.0200   -0.3300 hc        1 MOL      0.128399
     19 N2         -8.3140   -1.0640   -0.8900 n         1 MOL     -0.333337
     20 C7         -8.2490   -2.4060   -0.2640 c3        1 MOL      0.063683
     21 C8         -6.7760   -2.8410   -0.0560 c         1 MOL      0.637046
     22 O5         -6.4720   -4.0150   -0.1770 o         1 MOL     -0.587305
     23 C9         -8.9790   -3.4300   -1.2120 c3        1 MOL     -0.112129
     24 C10        -9.9590   -4.4270   -0.4580 c3        1 MOL     -0.061036
     25 C11       -11.1850   -3.6540    0.0420 c3        1 MOL     -0.099771
     26 C12       -12.2560   -4.6560    0.6090 c3        1 MOL     -0.225204
     27 N3        -12.8710   -5.5150   -0.3980 n4        1 MOL     -0.063792
     28 H8         -8.5860   -1.0810   -1.8650 hn        1 MOL      0.231521
     29 H9         -8.7220   -2.3550    0.7150 h1        1 MOL      0.100842
     30 H10        -8.2140   -3.9830   -1.7710 hc        1 MOL      0.037047
     31 H11        -9.5550   -2.8630   -1.9460 hc        1 MOL      0.037047
     32 H12        -9.4970   -4.9620    0.3650 hc        1 MOL      0.057991
     33 H13       -10.3850   -5.2220   -1.0780 hc        1 MOL      0.057991
     34 H14       -11.6310   -3.0080   -0.7070 hc        1 MOL      0.086695
     35 H15       -10.8450   -3.0720    0.8990 hc        1 MOL      0.086695
     36 H16       -13.0230   -3.9230    0.8630 hx        1 MOL      0.156794
     37 H17       -11.8020   -5.2270    1.4290 hx        1 MOL      0.156794
     38 H18       -12.2760   -6.1600   -0.8960 hn        1 MOL      0.214221
     39 H19       -13.5660   -6.1120    0.0310 hn        1 MOL      0.214221
     40 H20       -13.4080   -4.9660   -1.0550 hn        1 MOL      0.214221
     41 N4         -5.8990   -1.9010    0.2910 n         1 MOL     -0.576309
     42 C13        -4.4670   -2.0470    0.2380 c3        1 MOL      0.165511
     43 C14        -3.8010   -2.2830    1.6090 c         1 MOL      0.509019
     44 O6         -4.0100   -1.5180    2.5170 o         1 MOL     -0.483945
     45 C15        -3.7690   -0.8390   -0.4560 c3        1 MOL     -0.039659
     46 C16        -2.3200   -0.9110   -0.7150 c         1 MOL      0.693904
     47 O7         -1.5440   -0.1470   -0.0990 o         1 MOL     -0.768774
     48 O8         -1.9330   -1.6310   -1.6630 o         1 MOL     -0.768774
     49 H21        -6.3300   -0.9890    0.4120 hn        1 MOL      0.292235
     50 H22        -4.2210   -2.8740   -0.4280 h1        1 MOL      0.000082
     51 H23        -4.0280    0.0200    0.1570 hc        1 MOL      0.062731
     52 H24        -4.2930   -0.6480   -1.3940 hc        1 MOL      0.062731
     53 N5         -2.9010   -3.2590    1.7000 n         1 MOL     -0.281714
     54 C17        -2.2400   -3.6730    2.9530 c3        1 MOL     -0.422238
     55 C18        -1.3540   -2.7540    3.6950 c         1 MOL      0.590432
     56 O9         -1.1800   -3.0050    4.9140 o         1 MOL     -0.562188
     57 H25        -2.7610   -3.8000    0.8540 hn        1 MOL      0.250362
     58 H26        -1.5690   -4.4730    2.6260 h1        1 MOL      0.180367
     59 H27        -2.9820   -3.9660    3.6820 h1        1 MOL      0.180367
     60 N6         -0.8940   -1.6630    3.1190 n         1 MOL     -0.119996
     61 C19        -0.1180   -0.6950    3.8850 c3        1 MOL     -0.294567
     62 C20        -0.6680    0.7030    3.8100 c         1 MOL      0.677451
     63 O10        -0.1150    1.5550    4.5270 o         1 MOL     -0.559632
     64 C21         1.3590   -0.9310    3.7230 c3        1 MOL     -0.058281
     65 C22         1.8570   -0.4980    2.3640 c         1 MOL      0.436099
     66 N7          3.1420   -0.2940    2.3420 n         1 MOL     -0.579173
     67 O11         1.1610   -0.0990    1.4640 o         1 MOL     -0.419302
     68 H28        -0.8920   -1.6100    2.1100 hn        1 MOL      0.143708
     69 H29        -0.2870   -0.9490    4.9380 h1        1 MOL      0.154328
     70 H30         1.6520   -1.9690    3.8380 hc        1 MOL      0.071689
     71 H31         1.9840   -0.4150    4.4610 hc        1 MOL      0.071689
     72 H32         3.6860   -0.6350    3.1270 hn        1 MOL      0.291652
     73 H33         3.5500   -0.0140    1.4650 hn        1 MOL      0.291652
     74 N8         -1.5910    0.9210    2.8880 n         1 MOL     -0.414476
     75 C23        -2.2160    2.2210    2.5510 c3        1 MOL      0.009435
     76 C24        -1.2540    3.1480    1.8070 c         1 MOL      0.404233
     77 O12        -0.8030    4.2630    2.2130 o         1 MOL     -0.529250
     78 H34        -1.6840    0.3190    2.0940 hn        1 MOL      0.179152
     79 H35        -2.6320    2.6920    3.4500 h1        1 MOL      0.092668
     80 H36        -3.0810    2.0910    1.8920 h1        1 MOL      0.092668
     81 N9         -0.9700    2.7000    0.5520 n         1 MOL     -0.060644
     82 C25        -0.1440    3.4720   -0.3820 c3        1 MOL      0.170909
     83 C26         1.1290    2.6790   -0.8160 c         1 MOL      0.382652
     84 O13         1.1080    1.4750   -1.0370 o         1 MOL     -0.542989
     85 C27        -0.9020    3.7380   -1.6740 c3        1 MOL     -0.074039
     86 C28        -2.1230    4.6040   -1.3590 ca        1 MOL     -0.019980
     87 C29        -3.4380    4.1600   -1.2480 ca        1 MOL     -0.189637
     88 C30        -1.8290    6.0140   -1.1800 ca        1 MOL     -0.189637
     89 C31        -4.4460    5.0830   -0.9280 ca        1 MOL     -0.152355
     90 C32        -2.8230    6.9410   -0.8590 ca        1 MOL     -0.152355
     91 C33        -4.1530    6.4980   -0.8130 ca        1 MOL      0.281297
     92 O14        -5.1310    7.4610   -0.6960 oh        1 MOL     -0.503090
     93 H37        -1.1370    1.7240    0.3280 hn        1 MOL      0.104571
     94 H38         0.2080    4.3650    0.1400 h1        1 MOL      0.030822
     95 H39        -1.3720    2.8550   -2.1110 hc        1 MOL      0.043062
     96 H40        -0.2560    4.1310   -2.4560 hc        1 MOL      0.043062
     97 H41        -3.6870    3.1070   -1.2040 ha        1 MOL      0.100351
     98 H42        -0.8460    6.3960   -1.3780 ha        1 MOL      0.100351
     99 H43        -5.4470    4.6860   -0.8620 ha        1 MOL      0.118266
    100 H44        -2.5350    7.9680   -0.6810 ha        1 MOL      0.118266
    101 H45        -4.8600    8.3800   -0.6750 ho        1 MOL      0.383199
    102 N10         2.2900    3.3120   -0.8700 n         1 MOL     -0.506223
    103 C34         3.6400    2.6940   -1.2950 c3        1 MOL     -0.065878
    104 C35         4.4080    2.2860   -0.0410 c         1 MOL      0.487558
    105 O15         4.7040    1.1060    0.1110 o         1 MOL     -0.603402
    106 C36         4.3760    3.5260   -2.2920 c3        1 MOL     -0.014967
    107 C37         3.4820    3.8350   -3.5770 c3        1 MOL     -0.017357
    108 C38         5.6560    2.7760   -2.8500 c3        1 MOL     -0.320543
    109 C39         3.0230    2.6910   -4.4670 c3        1 MOL     -0.070869
    110 H46         2.3090    4.3140   -0.7470 hn        1 MOL      0.306036
    111 H47         3.3310    1.7510   -1.7440 h1        1 MOL      0.232997
    112 H48         4.7980    4.4340   -1.8510 hc        1 MOL      0.035293
    113 H49         3.9960    4.4920   -4.2830 hc        1 MOL      0.028360
    114 H50         2.6090    4.3920   -3.2620 hc        1 MOL      0.028360
    115 H51         5.4220    1.7280   -3.0540 hc        1 MOL      0.097437
    116 H52         6.1380    3.3340   -3.6550 hc        1 MOL      0.097437
    117 H53         6.4540    2.7920   -2.1050 hc        1 MOL      0.097437
    118 H54         3.8020    1.9290   -4.5980 hc        1 MOL      0.026893
    119 H55         2.2080    2.1640   -3.9750 hc        1 MOL      0.026893
    120 H56         2.6020    3.0780   -5.3860 hc        1 MOL      0.026893
    121 N11         4.7020    3.2610    0.7870 n         1 MOL     -0.129269
    122 C40         5.3280    3.1740    2.1200 c3        1 MOL     -0.279691
    123 C41         6.6950    2.4880    2.1090 c         1 MOL      0.711287
    124 O16         7.0170    1.8850    3.1130 o         1 MOL     -0.542312
    125 C42         5.4500    4.6530    2.5590 c3        1 MOL      0.063299
    126 O17         6.0220    5.5210    1.6680 oh        1 MOL     -0.645654
    127 H57         4.3500    4.1790    0.5630 hn        1 MOL      0.234785
    128 H58         4.6340    2.7270    2.8230 h1        1 MOL      0.151687
    129 H59         6.1730    4.6020    3.3700 h1        1 MOL      0.082829
    130 H60         4.5220    5.0320    2.9690 h1        1 MOL      0.082829
    131 H61         5.9370    6.4210    1.9800 ho        1 MOL      0.449831
    132 N12         7.4660    2.6680    0.9990 n         1 MOL     -0.272866
    133 C43         8.7550    2.0660    0.7400 c3        1 MOL      0.005551
    134 C44         8.8590    0.5030    1.0260 c         1 MOL      0.609379
    135 O18         9.9370    0.1090    1.5320 o         1 MOL     -0.551948
    136 C45         9.7910    3.0310    1.4110 c3        1 MOL     -0.239212
    137 H62         7.0820    3.3660    0.3760 hn        1 MOL      0.220782
    138 H63         8.9280    2.1740   -0.3280 h1        1 MOL      0.073625
    139 H64        10.8440    2.8360    1.2000 hc        1 MOL      0.077683
    140 H65         9.5820    4.0760    1.1580 hc        1 MOL      0.077683
    141 H66         9.6200    3.0370    2.4900 hc        1 MOL      0.077683
    142 N13         7.8600   -0.3100    0.7860 n         1 MOL     -0.704495
    143 C46         7.8720   -1.8000    1.1020 c3        1 MOL      0.534398
    144 C47         7.3390   -2.5060   -0.1620 c         1 MOL      0.374471
    145 O19         6.7200   -1.8470   -1.0350 o         1 MOL     -0.433191
    146 C48         6.9220   -2.0230    2.2860 c3        1 MOL     -0.227802
    147 H67         6.9640    0.1410    0.6380 hn        1 MOL      0.254242
    148 H68         8.8120   -2.2660    1.4190 h1        1 MOL     -0.034483
    149 H69         6.8340   -3.0980    2.4670 hc        1 MOL      0.056560
    150 H70         7.3380   -1.5050    3.1530 hc        1 MOL      0.056560
    151 H71         5.9280   -1.6630    2.0090 hc        1 MOL      0.056560
    152 N14         7.7780   -3.7930   -0.3310 n         1 MOL     -0.538781
    153 C49         7.4840   -4.6770   -1.4360 c3        1 MOL      0.009573
    154 C50         7.7950   -3.9470   -2.7860 c         1 MOL      0.373172
    155 O20         7.0170   -4.0720   -3.7500 o         1 MOL     -0.510433
    156 C51         6.0170   -5.1600   -1.2510 c3        1 MOL      0.308123
    157 C52         5.7510   -5.7370    0.1540 c3        1 MOL     -0.342513
    158 C53         4.3750   -6.2870    0.1310 c         1 MOL      0.694715
    159 O21         3.4320   -5.8330    0.8720 o         1 MOL     -0.721106
    160 O22         4.1510   -7.1690   -0.7310 o         1 MOL     -0.721106
    161 H72         8.3700   -4.2480    0.3450 hn        1 MOL      0.324858
    162 H73         8.1170   -5.5560   -1.3830 h1        1 MOL      0.070108
    163 H74         5.7980   -5.9110   -2.0160 hc        1 MOL     -0.031051
    164 H75         5.3850   -4.3210   -1.5040 hc        1 MOL     -0.031051
    165 H76         5.8920   -5.0810    1.0100 hc        1 MOL      0.048688
    166 H77         6.4600   -6.5600    0.2340 hc        1 MOL      0.048688
    167 N15         8.8750   -3.2190   -2.8810 n         1 MOL     -0.275429
    168 C54         9.0650   -2.2940   -4.0810 c3        1 MOL     -0.067989
    169 H78         9.9590   -2.5900   -4.6300 h1        1 MOL      0.071105
    170 H79         8.1980   -2.3660   -4.7380 h1        1 MOL      0.071105
    171 H80         9.1750   -1.2660   -3.7350 h1        1 MOL      0.071105
    172 H81         9.5140   -3.2040   -2.1040 hn        1 MOL      0.228771
    173 Ca1         0.7750   -0.9890   -1.3190 Ca        1 MOL      1.791866
    174 O23         1.2080   -3.4650   -2.3530 oh        1 MOL     -0.875710
    175 H82         1.2770   -3.5930   -3.3050 ho        1 MOL      0.432418
    176 H83         1.1730   -4.3550   -1.9960 ho        1 MOL      0.432418
    177 O24         3.2210   -1.4230   -0.4270 oh        1 MOL     -0.875710
    178 H84         3.8910   -0.7320   -0.3870 ho        1 MOL      0.432418
    179 H85         3.5030   -2.0760    0.2100 ho        1 MOL      0.432418
    180 O25         0.5550   -3.1270    0.4470 oh        1 MOL     -0.875710
    181 H86         0.1160   -3.8960    0.0850 ho        1 MOL      0.432418
    182 H87         1.3370   -3.4690    0.8650 ho        1 MOL      0.432418
    183 O26         2.5830   -0.6850   -3.4330 oh        1 MOL     -0.875710
    184 H88         2.2530   -0.9910   -4.2700 ho        1 MOL      0.432418
    185 H89         3.5110   -0.9440   -3.4280 ho        1 MOL      0.432418
    186 O27        -0.6290    0.0910   -3.4530 oh        1 MOL     -0.875710
    187 H90        -0.5850    0.8850   -3.9780 ho        1 MOL      0.432418
    188 H91        -1.4710   -0.3050   -3.6860 ho        1 MOL      0.432418
@<TRIPOS>BOND
     1    1    2 1   
     2    1    4 1   
     3    1    5 1   
     4    1    6 1   
     5    2    3 2   
     6    2    7 1   
     7    7    8 1   
     8    7   15 1   
     9    8    9 1   
    10    8   11 1   
    11    8   16 1   
    12    9   10 2   
    13    9   19 1   
    14   11   12 1   
    15   11   17 1   
    16   11   18 1   
    17   12   13 1   
    18   12   14 1   
    19   19   20 1   
    20   19   28 1   
    21   20   21 1   
    22   20   23 1   
    23   20   29 1   
    24   21   22 2   
    25   21   41 1   
    26   23   24 1   
    27   23   30 1   
    28   23   31 1   
    29   24   25 1   
    30   24   32 1   
    31   24   33 1   
    32   25   26 1   
    33   25   34 1   
    34   25   35 1   
    35   26   27 1   
    36   26   36 1   
    37   26   37 1   
    38   27   38 1   
    39   27   39 1   
    40   27   40 1   
    41   41   42 1   
    42   41   49 1   
    43   42   43 1   
    44   42   45 1   
    45   42   50 1   
    46   43   44 2   
    47   43   53 1   
    48   45   46 1   
    49   45   51 1   
    50   45   52 1   
    51   46   47 1   
    52   46   48 1   
    53   53   54 1   
    54   53   57 1   
    55   54   55 1   
    56   54   58 1   
    57   54   59 1   
    58   55   56 2   
    59   55   60 1   
    60   60   61 1   
    61   60   68 1   
    62   61   62 1   
    63   61   64 1   
    64   61   69 1   
    65   62   63 2   
    66   62   74 1   
    67   64   65 1   
    68   64   70 1   
    69   64   71 1   
    70   65   66 1   
    71   65   67 2   
    72   66   72 1   
    73   66   73 1   
    74   74   75 1   
    75   74   78 1   
    76   75   76 1   
    77   75   79 1   
    78   75   80 1   
    79   76   77 2   
    80   76   81 1   
    81   81   82 1   
    82   81   93 1   
    83   82   83 1   
    84   82   85 1   
    85   82   94 1   
    86   83   84 2   
    87   83  102 1   
    88   85   86 1   
    89   85   95 1   
    90   85   96 1   
    91   86   87 ar  
    92   86   88 ar  
    93   87   89 ar  
    94   87   97 1   
    95   88   90 ar  
    96   88   98 1   
    97   89   91 ar  
    98   89   99 1   
    99   90   91 ar  
   100   90  100 1   
   101   91   92 1   
   102   92  101 1   
   103  102  103 1   
   104  102  110 1   
   105  103  104 1   
   106  103  106 1   
   107  103  111 1   
   108  104  105 2   
   109  104  121 1   
   110  106  107 1   
   111  106  108 1   
   112  106  112 1   
   113  107  109 1   
   114  107  113 1   
   115  107  114 1   
   116  108  115 1   
   117  108  116 1   
   118  108  117 1   
   119  109  118 1   
   120  109  119 1   
   121  109  120 1   
   122  121  122 1   
   123  121  127 1   
   124  122  123 1   
   125  122  125 1   
   126  122  128 1   
   127  123  124 2   
   128  123  132 1   
   129  125  126 1   
   130  125  129 1   
   131  125  130 1   
   132  126  131 1   
   133  132  133 1   
   134  132  137 1   
   135  133  134 1   
   136  133  136 1   
   137  133  138 1   
   138  134  135 2   
   139  134  142 1   
   140  136  139 1   
   141  136  140 1   
   142  136  141 1   
   143  142  143 1   
   144  142  147 1   
   145  143  144 1   
   146  143  146 1   
   147  143  148 1   
   148  144  145 2   
   149  144  152 1   
   150  146  149 1   
   151  146  150 1   
   152  146  151 1   
   153  152  153 1   
   154  152  161 1   
   155  153  154 1   
   156  153  156 1   
   157  153  162 1   
   158  154  155 2   
   159  154  167 1   
   160  156  157 1   
   161  156  163 1   
   162  156  164 1   
   163  157  158 1   
   164  157  165 1   
   165  157  166 1   
   166  158  159 1   
   167  158  160 1   
   168  167  168 1   
   169  167  172 1   
   170  168  169 1   
   171  168  170 1   
   172  168  171 1   
   173  174  175 1   
   174  174  176 1   
   175  177  178 1   
   176  177  179 1   
   177  180  181 1   
   178  180  182 1   
   179  183  184 1   
   180  183  185 1   
   181  186  187 1   
   182  186  188 1   
@<TRIPOS>SUBSTRUCTURE
     1 MOL         1 TEMP              0 ****  ****    0 ROOT
