@<TRIPOS>MOLECULE
MOL
  182   178     1     0     0
SMALL
resp


@<TRIPOS>ATOM
      1 C1         -6.2260    2.2470   -1.7760 c3        1 MOL     -0.370988
      2 C2         -7.1380    1.7160   -0.7320 c         1 MOL      0.815062
      3 O1         -6.7280    1.2490    0.3150 o         1 MOL     -0.602148
      4 H1         -5.5140    2.9350   -1.3200 hc        1 MOL      0.069432
      5 H2         -5.6850    1.4220   -2.2410 hc        1 MOL      0.069432
      6 H3         -6.8070    2.7730   -2.5330 hc        1 MOL      0.069432
      7 N1         -8.3950    1.7850   -1.0460 n         1 MOL     -0.396194
      8 C3         -9.5370    1.4620   -0.2020 c3        1 MOL     -0.038079
      9 C4         -9.5690    0.0410    0.3730 c         1 MOL      0.613022
     10 O2        -10.2790   -0.2260    1.3450 o         1 MOL     -0.541549
     11 C5         -9.8670    2.4790    0.8530 c3        1 MOL     -0.200787
     12 C6        -10.0020    3.9100    0.2760 c         1 MOL      0.691315
     13 O3        -10.1940    4.1840   -0.9600 o         1 MOL     -0.653712
     14 O4         -9.8250    4.8360    1.0800 o         1 MOL     -0.653712
     15 H4         -8.6510    2.2200   -1.9160 hn        1 MOL      0.245529
     16 H5        -10.3220    1.4760   -0.9510 h1        1 MOL      0.053200
     17 H6         -9.2760    2.3950    1.7590 hc        1 MOL      0.080144
     18 H7        -10.9100    2.2430    1.0740 hc        1 MOL      0.080144
     19 N2         -8.7630   -0.8110   -0.2420 n         1 MOL     -0.453560
     20 C7         -8.5440   -2.2610    0.0120 c3        1 MOL      0.152580
     21 C8         -7.0980   -2.6880    0.0970 c         1 MOL      0.556505
     22 O5         -6.7740   -3.8420   -0.1130 o         1 MOL     -0.636506
     23 C9         -9.4180   -3.0440   -1.0230 c3        1 MOL     -0.012455
     24 C10        -9.0010   -2.9670   -2.5110 c3        1 MOL      0.148534
     25 C11        -7.8050   -3.7390   -3.0120 c3        1 MOL     -0.143332
     26 C12        -7.7050   -5.2240   -2.6680 c3        1 MOL      0.023465
     27 N3         -8.3810   -6.0730   -3.5480 n4        1 MOL     -0.268459
     28 H8         -8.2060   -0.4110   -0.9860 hn        1 MOL      0.153589
     29 H9         -8.9680   -2.4760    0.9990 h1        1 MOL      0.071756
     30 H10       -10.4150   -2.6250   -0.9080 hc        1 MOL      0.000528
     31 H11        -9.4570   -4.0790   -0.6520 hc        1 MOL      0.000528
     32 H12        -8.7950   -1.9250   -2.7330 hc        1 MOL     -0.028291
     33 H13        -9.8870   -3.1750   -3.1230 hc        1 MOL     -0.028291
     34 H14        -6.9230   -3.2250   -2.6500 hc        1 MOL      0.052935
     35 H15        -7.6590   -3.5630   -4.0750 hc        1 MOL      0.052935
     36 H16        -8.0770   -5.3280   -1.6560 hx        1 MOL      0.089458
     37 H17        -6.6710   -5.5470   -2.5470 hx        1 MOL      0.089458
     38 H18        -9.2940   -6.3550   -3.2140 hn        1 MOL      0.257841
     39 H19        -8.4980   -5.7620   -4.4990 hn        1 MOL      0.257841
     40 H20        -7.8100   -6.8710   -3.7790 hn        1 MOL      0.257841
     41 N4         -6.2620   -1.7830    0.4580 n         1 MOL     -0.350134
     42 C13        -4.7590   -1.9230    0.6710 c3        1 MOL     -0.079964
     43 C14        -4.3010   -2.1950    2.1410 c         1 MOL      0.509814
     44 O6         -4.4550   -1.3880    3.0390 o         1 MOL     -0.466812
     45 C15        -4.0480   -0.5970    0.1110 c3        1 MOL      0.011729
     46 C16        -2.5440   -0.8450   -0.0360 c         1 MOL      0.579828
     47 O7         -1.9780   -0.2120   -0.9050 o         1 MOL     -0.709609
     48 O8         -1.8880   -1.5640    0.7610 o         1 MOL     -0.709609
     49 H21        -6.5880   -0.8350    0.5830 hn        1 MOL      0.246601
     50 H22        -4.3000   -2.6660    0.0240 h1        1 MOL      0.052148
     51 H23        -4.1610    0.2570    0.7870 hc        1 MOL      0.041161
     52 H24        -4.4280   -0.4160   -0.8900 hc        1 MOL      0.041161
     53 N5         -3.6860   -3.3910    2.3170 n         1 MOL     -0.243980
     54 C17        -3.2470   -3.9290    3.6390 c3        1 MOL     -0.381499
     55 C18        -2.1390   -3.1670    4.3470 c         1 MOL      0.608659
     56 O9         -1.7500   -3.4730    5.4660 o         1 MOL     -0.544297
     57 H25        -3.5960   -3.9820    1.5090 hn        1 MOL      0.237433
     58 H26        -2.8560   -4.8970    3.3440 h1        1 MOL      0.166093
     59 H27        -4.1230   -4.0570    4.2850 h1        1 MOL      0.166093
     60 N6         -1.5610   -2.0580    3.7330 n         1 MOL     -0.265805
     61 C19        -0.7560   -1.0300    4.3490 c3        1 MOL     -0.107214
     62 C20        -0.8840    0.4700    3.9240 c         1 MOL      0.403582
     63 O10        -0.1370    1.2760    4.5480 o         1 MOL     -0.480095
     64 C21         0.7010   -1.4200    4.2510 c3        1 MOL     -0.116449
     65 C22         1.2200   -1.6580    2.8510 c         1 MOL      0.648535
     66 N7          2.1780   -2.5830    2.6810 n         1 MOL     -0.767846
     67 O11         0.8240   -1.0770    1.8690 o         1 MOL     -0.524197
     68 H28        -1.8110   -1.9470    2.7690 hn        1 MOL      0.169989
     69 H29        -0.9070   -1.1030    5.4290 h1        1 MOL      0.150198
     70 H30         0.8770   -2.3690    4.7500 hc        1 MOL      0.054224
     71 H31         1.3550   -0.7420    4.8000 hc        1 MOL      0.054224
     72 H32         2.3650   -3.1730    3.4800 hn        1 MOL      0.337361
     73 H33         2.5600   -2.6780    1.7540 hn        1 MOL      0.337361
     74 N8         -1.6710    0.7430    2.8530 n         1 MOL     -0.197355
     75 C23        -1.6940    1.9830    2.0440 c3        1 MOL     -0.043773
     76 C24        -0.3220    2.4000    1.4070 c         1 MOL      0.538739
     77 O12         0.7190    2.6000    2.1330 o         1 MOL     -0.477022
     78 H34        -2.0070   -0.0930    2.3910 hn        1 MOL      0.111292
     79 H35        -2.1450    2.7640    2.6490 h1        1 MOL      0.090903
     80 H36        -2.3940    1.6620    1.2750 h1        1 MOL      0.090903
     81 N9         -0.3630    2.7280    0.1030 n         1 MOL     -0.644043
     82 C25         0.7780    3.2630   -0.6430 c3        1 MOL      0.685384
     83 C26         1.8450    2.1390   -0.9670 c         1 MOL      0.193206
     84 O13         1.5560    0.9330   -0.8730 o         1 MOL     -0.477429
     85 C27         0.3360    4.1680   -1.8450 c3        1 MOL     -0.111262
     86 C28        -0.6960    5.2220   -1.5810 ca        1 MOL      0.114899
     87 C29        -0.5870    6.2400   -0.6220 ca        1 MOL     -0.284338
     88 C30        -1.8310    5.1960   -2.3980 ca        1 MOL     -0.284338
     89 C31        -1.7210    7.0800   -0.3480 ca        1 MOL     -0.130580
     90 C32        -2.8790    6.0690   -2.2210 ca        1 MOL     -0.130580
     91 C33        -2.8930    7.0230   -1.1820 ca        1 MOL      0.232934
     92 O14        -3.9440    7.9270   -1.0800 oh        1 MOL     -0.435052
     93 H37        -1.1890    2.6050   -0.4740 hn        1 MOL      0.307355
     94 H38         1.1910    3.9250    0.1130 h1        1 MOL     -0.089330
     95 H39         0.0480    3.5540   -2.6950 hc        1 MOL      0.005305
     96 H40         1.2900    4.6230   -2.0820 hc        1 MOL      0.005305
     97 H41         0.2850    6.3820   -0.0030 ha        1 MOL      0.166809
     98 H42        -1.9230    4.4500   -3.1740 ha        1 MOL      0.166809
     99 H43        -1.7180    7.8390    0.4070 ha        1 MOL      0.132149
    100 H44        -3.6300    6.0770   -3.0010 ha        1 MOL      0.132149
    101 H45        -4.4700    7.9020   -1.8790 ho        1 MOL      0.349330
    102 N10         3.0730    2.5060   -1.3560 n         1 MOL     -0.285227
    103 C34         4.2210    1.6670   -1.5280 c3        1 MOL     -0.022520
    104 C35         5.2440    1.8930   -0.3360 c         1 MOL      0.515470
    105 O15         5.8420    0.9750    0.1370 o         1 MOL     -0.408410
    106 C36         4.8840    1.7650   -2.9620 c3        1 MOL      0.132407
    107 C37         3.9660    1.2250   -4.1230 c3        1 MOL     -0.042801
    108 C38         6.2750    1.0360   -2.9970 c3        1 MOL     -0.384369
    109 C39         2.6340    1.9620   -4.4640 c3        1 MOL     -0.101924
    110 H46         3.2820    3.4870   -1.2560 hn        1 MOL      0.171417
    111 H47         3.8150    0.6640   -1.4230 h1        1 MOL      0.137080
    112 H48         5.0720    2.8220   -3.1540 hc        1 MOL     -0.006112
    113 H49         3.6950    0.1940   -3.8740 hc        1 MOL      0.032542
    114 H50         4.5540    1.2830   -5.0350 hc        1 MOL      0.032542
    115 H51         6.1990   -0.0210   -2.7460 hc        1 MOL      0.102798
    116 H52         6.6790    1.1330   -4.0070 hc        1 MOL      0.102798
    117 H53         6.9380    1.5150   -2.2810 hc        1 MOL      0.102798
    118 H54         2.7070    3.0590   -4.5410 hc        1 MOL      0.019151
    119 H55         2.1470    1.6900   -5.3990 hc        1 MOL      0.019151
    120 H56         1.9410    1.8670   -3.6300 hc        1 MOL      0.019151
    121 N11         5.4140    3.0980    0.1500 n         1 MOL     -0.422052
    122 C40         6.2840    3.3650    1.3090 c3        1 MOL     -0.026005
    123 C41         7.6970    2.8050    1.3600 c         1 MOL      0.282242
    124 O16         8.2460    2.3940    2.3920 o         1 MOL     -0.435140
    125 C42         6.2310    4.8910    1.6680 c3        1 MOL      0.259426
    126 O17         4.9050    5.2910    1.7910 oh        1 MOL     -0.610196
    127 H57         4.6970    3.7760   -0.0480 hn        1 MOL      0.302838
    128 H58         5.8080    2.8740    2.1620 h1        1 MOL      0.099928
    129 H59         6.7630    5.4570    0.9030 h1        1 MOL      0.022225
    130 H60         6.7800    5.0440    2.6000 h1        1 MOL      0.022225
    131 H61         4.6470    5.1710    2.7070 ho        1 MOL      0.423428
    132 N12         8.2420    2.7210    0.1360 n         1 MOL     -0.288454
    133 C43         9.5050    2.0060   -0.1250 c3        1 MOL      0.252247
    134 C44         9.5940    0.5900    0.5730 c         1 MOL      0.398118
    135 O18        10.6220    0.1920    1.0780 o         1 MOL     -0.484373
    136 C45        10.6650    2.9510    0.2320 c3        1 MOL     -0.267005
    137 H62         7.7120    3.2510   -0.5460 hn        1 MOL      0.205261
    138 H63         9.5050    1.8100   -1.2020 h1        1 MOL      0.021063
    139 H64        10.4870    3.4180    1.2020 hc        1 MOL      0.072556
    140 H65        11.6000    2.3900    0.2290 hc        1 MOL      0.072556
    141 H66        10.7870    3.7450   -0.5060 hc        1 MOL      0.072556
    142 N13         8.4810   -0.1880    0.5130 n         1 MOL     -0.381089
    143 C46         8.3420   -1.5410    0.9930 c3        1 MOL      0.432884
    144 C47         7.6580   -2.4110   -0.0500 c         1 MOL      0.372214
    145 O19         7.7000   -2.0590   -1.2080 o         1 MOL     -0.553710
    146 C48         7.5700   -1.5240    2.3220 c3        1 MOL     -0.375245
    147 H67         7.6870    0.1900    0.0320 hn        1 MOL      0.175217
    148 H68         9.3170   -1.9800    1.2120 h1        1 MOL     -0.014574
    149 H69         6.6030   -1.0720    2.1230 hc        1 MOL      0.098493
    150 H70         7.4490   -2.5230    2.7540 hc        1 MOL      0.098493
    151 H71         8.1160   -0.8500    2.9880 hc        1 MOL      0.098493
    152 N14         7.1480   -3.5220    0.4010 n         1 MOL     -0.498792
    153 C49         6.3580   -4.5330   -0.3190 c3        1 MOL      0.026151
    154 C50         6.8590   -5.1020   -1.6760 c         1 MOL      0.540871
    155 O20         6.9270   -6.3290   -1.6930 o         1 MOL     -0.573084
    156 C51         4.8700   -4.2380   -0.4660 c3        1 MOL     -0.225301
    157 C52         4.5090   -2.9970   -1.3130 c3        1 MOL      0.238957
    158 C53         3.0950   -2.6710   -0.9900 c         1 MOL      0.494566
    159 O21         2.8500   -2.1110    0.0780 o         1 MOL     -0.685322
    160 O22         2.1940   -2.9300   -1.8240 o         1 MOL     -0.685322
    161 H72         7.2830   -3.7570    1.3720 hn        1 MOL      0.348037
    162 H73         6.3910   -5.3850    0.3550 h1        1 MOL      0.067777
    163 H74         4.5940   -4.1460    0.5860 hc        1 MOL      0.078738
    164 H75         4.3670   -5.1050   -0.9090 hc        1 MOL      0.078738
    165 H76         4.5430   -3.2370   -2.3740 hc        1 MOL     -0.044673
    166 H77         5.1580   -2.1210   -1.2340 hc        1 MOL     -0.044673
    167 N15         7.3150   -4.3270   -2.6300 n         1 MOL     -0.304312
    168 C54         7.4700   -4.7620   -4.0830 c3        1 MOL     -0.155236
    169 H78         6.7510   -5.5520   -4.3030 h1        1 MOL      0.085758
    170 H79         7.2860   -3.9110   -4.7390 h1        1 MOL      0.085758
    171 H80         8.4810   -5.1360   -4.2450 h1        1 MOL      0.085758
    172 H81         7.5500   -3.3720   -2.3950 hn        1 MOL      0.308696
    173 Ca1         0.3240   -1.5380   -0.5680 Ca        1 MOL      1.732610
    174 O23         0.1980   -3.9520    0.3260 oh        1 MOL     -0.833095
    175 H82         0.2970   -4.5300   -0.4390 ho        1 MOL      0.411921
    176 H83         0.0480   -4.5500    1.0500 ho        1 MOL      0.411921
    177 O24        -1.2650   -2.9140   -2.3690 oh        1 MOL     -0.833095
    178 H84        -1.2930   -3.7510   -2.8330 ho        1 MOL      0.411921
    179 H85        -2.0620   -2.4550   -2.6400 ho        1 MOL      0.411921
    180 O25         0.3450   -0.5040   -3.2180 oh        1 MOL     -0.833095
    181 H86        -0.0210    0.2950   -3.5800 ho        1 MOL      0.411921
    182 H87         0.5880   -1.0300   -3.9840 ho        1 MOL      0.411921
@<TRIPOS>BOND
     1    1    2 1   
     2    1    4 1   
     3    1    5 1   
     4    1    6 1   
     5    2    3 2   
     6    2    7 1   
     7    7    8 1   
     8    7   15 1   
     9    8    9 1   
    10    8   11 1   
    11    8   16 1   
    12    9   10 2   
    13    9   19 1   
    14   11   12 1   
    15   11   17 1   
    16   11   18 1   
    17   12   13 1   
    18   12   14 1   
    19   19   20 1   
    20   19   28 1   
    21   20   21 1   
    22   20   23 1   
    23   20   29 1   
    24   21   22 2   
    25   21   41 1   
    26   23   24 1   
    27   23   30 1   
    28   23   31 1   
    29   24   25 1   
    30   24   32 1   
    31   24   33 1   
    32   25   26 1   
    33   25   34 1   
    34   25   35 1   
    35   26   27 1   
    36   26   36 1   
    37   26   37 1   
    38   27   38 1   
    39   27   39 1   
    40   27   40 1   
    41   41   42 1   
    42   41   49 1   
    43   42   43 1   
    44   42   45 1   
    45   42   50 1   
    46   43   44 2   
    47   43   53 1   
    48   45   46 1   
    49   45   51 1   
    50   45   52 1   
    51   46   47 1   
    52   46   48 1   
    53   53   54 1   
    54   53   57 1   
    55   54   55 1   
    56   54   58 1   
    57   54   59 1   
    58   55   56 2   
    59   55   60 1   
    60   60   61 1   
    61   60   68 1   
    62   61   62 1   
    63   61   64 1   
    64   61   69 1   
    65   62   63 2   
    66   62   74 1   
    67   64   65 1   
    68   64   70 1   
    69   64   71 1   
    70   65   66 1   
    71   65   67 2   
    72   66   72 1   
    73   66   73 1   
    74   74   75 1   
    75   74   78 1   
    76   75   76 1   
    77   75   79 1   
    78   75   80 1   
    79   76   77 2   
    80   76   81 1   
    81   81   82 1   
    82   81   93 1   
    83   82   83 1   
    84   82   85 1   
    85   82   94 1   
    86   83   84 2   
    87   83  102 1   
    88   85   86 1   
    89   85   95 1   
    90   85   96 1   
    91   86   87 ar  
    92   86   88 ar  
    93   87   89 ar  
    94   87   97 1   
    95   88   90 ar  
    96   88   98 1   
    97   89   91 ar  
    98   89   99 1   
    99   90   91 ar  
   100   90  100 1   
   101   91   92 1   
   102   92  101 1   
   103  102  103 1   
   104  102  110 1   
   105  103  104 1   
   106  103  106 1   
   107  103  111 1   
   108  104  105 2   
   109  104  121 1   
   110  106  107 1   
   111  106  108 1   
   112  106  112 1   
   113  107  109 1   
   114  107  113 1   
   115  107  114 1   
   116  108  115 1   
   117  108  116 1   
   118  108  117 1   
   119  109  118 1   
   120  109  119 1   
   121  109  120 1   
   122  121  122 1   
   123  121  127 1   
   124  122  123 1   
   125  122  125 1   
   126  122  128 1   
   127  123  124 2   
   128  123  132 1   
   129  125  126 1   
   130  125  129 1   
   131  125  130 1   
   132  126  131 1   
   133  132  133 1   
   134  132  137 1   
   135  133  134 1   
   136  133  136 1   
   137  133  138 1   
   138  134  135 2   
   139  134  142 1   
   140  136  139 1   
   141  136  140 1   
   142  136  141 1   
   143  142  143 1   
   144  142  147 1   
   145  143  144 1   
   146  143  146 1   
   147  143  148 1   
   148  144  145 2   
   149  144  152 1   
   150  146  149 1   
   151  146  150 1   
   152  146  151 1   
   153  152  153 1   
   154  152  161 1   
   155  153  154 1   
   156  153  156 1   
   157  153  162 1   
   158  154  155 2   
   159  154  167 1   
   160  156  157 1   
   161  156  163 1   
   162  156  164 1   
   163  157  158 1   
   164  157  165 1   
   165  157  166 1   
   166  158  159 1   
   167  158  160 1   
   168  167  168 1   
   169  167  172 1   
   170  168  169 1   
   171  168  170 1   
   172  168  171 1   
   173  174  175 1   
   174  174  176 1   
   175  177  178 1   
   176  177  179 1   
   177  180  181 1   
   178  180  182 1   
@<TRIPOS>SUBSTRUCTURE
     1 MOL         1 TEMP              0 ****  ****    0 ROOT
