@<TRIPOS>MOLECULE
MOL
  182   178     1     0     0
SMALL
resp


@<TRIPOS>ATOM
      1 C1          0.0980   -3.6080    5.9670 c3        1 MOL     -0.477126
      2 C2          0.2480   -3.6420    4.4630 c         1 MOL      0.790076
      3 O1         -0.6490   -3.7650    3.6420 o         1 MOL     -0.609969
      4 H1         -0.8710   -4.0230    6.2430 hc        1 MOL      0.137587
      5 H2          0.8900   -4.1990    6.4250 hc        1 MOL      0.137587
      6 H3          0.1640   -2.5780    6.3160 hc        1 MOL      0.137587
      7 N1          1.4900   -3.5280    3.9900 n         1 MOL     -0.604507
      8 C3          1.8490   -3.3270    2.6190 c3        1 MOL      0.098769
      9 C4          1.7900   -4.6490    1.8430 c         1 MOL      0.535456
     10 O2          2.0520   -5.7500    2.4060 o         1 MOL     -0.528161
     11 C5          3.2090   -2.5720    2.6380 c3        1 MOL      0.003348
     12 C6          3.3470   -1.8180    1.3620 c         1 MOL      0.446388
     13 O3          3.8350   -0.6610    1.3360 o         1 MOL     -0.683215
     14 O4          3.1200   -2.2790    0.2210 o         1 MOL     -0.683215
     15 H4          2.2470   -3.5530    4.6600 hn        1 MOL      0.296902
     16 H5          1.0740   -2.6610    2.2440 h1        1 MOL     -0.087555
     17 H6          4.0410   -3.2710    2.7100 hc        1 MOL      0.063419
     18 H7          3.3000   -1.8960    3.4870 hc        1 MOL      0.063419
     19 N2          1.5350   -4.5450    0.5040 n         1 MOL     -0.329740
     20 C7          1.7510   -5.7240   -0.3660 c3        1 MOL     -0.018125
     21 C8          3.1090   -5.6990   -1.1300 c         1 MOL      0.531776
     22 O5          3.4620   -6.7290   -1.7000 o         1 MOL     -0.567209
     23 C9          0.6560   -5.9680   -1.3380 c3        1 MOL      0.159777
     24 C10        -0.7360   -6.1850   -0.6960 c3        1 MOL      0.057759
     25 C11        -1.7440   -6.5650   -1.7430 c3        1 MOL     -0.057845
     26 C12        -2.9700   -7.2920   -1.2300 c3        1 MOL      0.056943
     27 N3         -3.9260   -7.4300   -2.3310 n4        1 MOL     -0.086101
     28 H8          1.1170   -3.7000    0.1420 hn        1 MOL      0.218571
     29 H9          1.8100   -6.6250    0.2490 h1        1 MOL      0.087088
     30 H10         0.9660   -6.8410   -1.9000 hc        1 MOL     -0.044279
     31 H11         0.5060   -5.1430   -2.0410 hc        1 MOL     -0.044279
     32 H12        -1.0810   -5.2620   -0.2250 hc        1 MOL      0.000175
     33 H13        -0.6890   -6.9750    0.0610 hc        1 MOL      0.000175
     34 H14        -1.2150   -7.3540   -2.2930 hc        1 MOL      0.028931
     35 H15        -1.9980   -5.6840   -2.3220 hc        1 MOL      0.028931
     36 H16        -3.4700   -6.7110   -0.4520 hx        1 MOL      0.060867
     37 H17        -2.6950   -8.2570   -0.8240 hx        1 MOL      0.060867
     38 H18        -4.6240   -8.1120   -2.0630 hn        1 MOL      0.195766
     39 H19        -4.5400   -6.6420   -2.4940 hn        1 MOL      0.195766
     40 H20        -3.5290   -7.7760   -3.1840 hn        1 MOL      0.195766
     41 N4          3.8030   -4.5730   -1.2660 n         1 MOL     -0.415297
     42 C13         5.0600   -4.3140   -2.0460 c3        1 MOL      0.231596
     43 C14         6.1330   -3.7800   -1.1130 c         1 MOL      0.306397
     44 O6          7.3100   -3.8010   -1.4850 o         1 MOL     -0.514364
     45 C15         4.8100   -3.4140   -3.2750 c3        1 MOL     -0.543123
     46 C16         4.2180   -2.1330   -2.8030 c         1 MOL      1.000645
     47 O7          4.9210   -1.1840   -2.4080 o         1 MOL     -0.814601
     48 O8          2.9930   -1.9290   -2.9390 o         1 MOL     -0.814601
     49 H21         3.3130   -3.7370   -0.9500 hn        1 MOL      0.240451
     50 H22         5.4520   -5.2310   -2.4780 h1        1 MOL      0.087988
     51 H23         4.1770   -4.0290   -3.9100 hc        1 MOL      0.160310
     52 H24         5.7820   -3.2020   -3.7120 hc        1 MOL      0.160310
     53 N5          5.7330   -3.2430    0.0500 n         1 MOL     -0.040828
     54 C17         6.5050   -2.8630    1.1900 c3        1 MOL     -0.286645
     55 C18         7.2030   -1.5060    1.0650 c         1 MOL      0.694606
     56 O9          8.1000   -1.2820    1.7920 o         1 MOL     -0.569824
     57 H25         4.7710   -2.9650    0.0810 hn        1 MOL      0.022087
     58 H26         7.3210   -3.5740    1.2750 h1        1 MOL      0.134779
     59 H27         5.8970   -2.9120    2.0850 h1        1 MOL      0.134779
     60 N6          6.8890   -0.6260    0.0780 n         1 MOL     -0.482522
     61 C19         7.5220    0.7080   -0.1660 c3        1 MOL      0.414943
     62 C20         6.4440    1.8030   -0.2600 c         1 MOL      0.278040
     63 O10         5.3880    1.5010   -0.7780 o         1 MOL     -0.357310
     64 C21         8.4310    0.6350   -1.3820 c3        1 MOL     -0.442142
     65 C22         9.0790    1.9590   -1.7910 c         1 MOL      0.633827
     66 N7          8.3670    2.9390   -2.1780 n         1 MOL     -0.638122
     67 O11        10.2700    2.1830   -1.7270 o         1 MOL     -0.546747
     68 H28         6.3270   -0.9450   -0.6940 hn        1 MOL      0.285689
     69 H29         8.1480    0.8510    0.7160 h1        1 MOL     -0.016375
     70 H30         7.7140    0.3430   -2.1530 hc        1 MOL      0.142675
     71 H31         9.1610   -0.1590   -1.2300 hc        1 MOL      0.142675
     72 H32         7.4870    2.7990   -2.6520 hn        1 MOL      0.307393
     73 H33         8.8360    3.7790   -2.4910 hn        1 MOL      0.307393
     74 N8          6.7360    3.0080    0.2020 n         1 MOL     -0.423788
     75 C23         5.9660    4.1960    0.0460 c3        1 MOL     -0.047289
     76 C24         4.6600    4.3400    0.8160 c         1 MOL      0.649069
     77 O12         4.3860    3.8830    1.9380 o         1 MOL     -0.519246
     78 H34         7.6970    3.0400    0.5160 hn        1 MOL      0.334091
     79 H35         5.6700    4.3250   -0.9920 h1        1 MOL      0.071076
     80 H36         6.6140    5.0340    0.2700 h1        1 MOL      0.071076
     81 N9          3.5960    4.8480    0.1790 n         1 MOL     -0.747686
     82 C25         2.1930    4.7220    0.6860 c3        1 MOL      0.555036
     83 C26         1.6830    3.2780    0.7020 c         1 MOL      0.403120
     84 O13         2.3040    2.3530    0.0690 o         1 MOL     -0.562834
     85 C27         1.3680    5.7150   -0.2100 c3        1 MOL     -0.305101
     86 C28         1.8630    7.1170   -0.3400 ca        1 MOL      0.064141
     87 C29         1.9840    7.7580   -1.5890 ca        1 MOL     -0.108244
     88 C30         2.0110    7.8310    0.8800 ca        1 MOL     -0.108244
     89 C31         2.5060    9.0730   -1.6550 ca        1 MOL     -0.297604
     90 C32         2.5020    9.1380    0.8080 ca        1 MOL     -0.297604
     91 C33         2.8620    9.6760   -0.4620 ca        1 MOL      0.365783
     92 O14         3.6490   10.7490   -0.5420 oh        1 MOL     -0.464845
     93 H37         3.6830    4.9260   -0.8280 hn        1 MOL      0.293028
     94 H38         2.1140    5.0650    1.7160 h1        1 MOL      0.037785
     95 H39         0.3950    5.7800    0.2820 hc        1 MOL      0.066210
     96 H40         1.2330    5.2960   -1.2040 hc        1 MOL      0.066210
     97 H41         1.7230    7.2310   -2.4930 ha        1 MOL      0.116928
     98 H42         1.9620    7.3190    1.8330 ha        1 MOL      0.116928
     99 H43         2.7180    9.5730   -2.5930 ha        1 MOL      0.170206
    100 H44         2.8000    9.6710    1.6880 ha        1 MOL      0.170206
    101 H45         3.8440   11.0030   -1.4400 ho        1 MOL      0.356480
    102 N10         0.5890    3.0150    1.4740 n         1 MOL     -0.718196
    103 C34         0.0880    1.8100    2.0390 c3        1 MOL      0.489662
    104 C35        -0.2480    0.7000    1.0270 c         1 MOL      0.126495
    105 O15         0.7050    0.1340    0.4130 o         1 MOL     -0.179570
    106 C36         1.0060    1.3190    3.1590 c3        1 MOL      0.184735
    107 C37         0.4370    0.1050    3.9050 c3        1 MOL     -0.335827
    108 C38         1.4770    2.3490    4.2530 c3        1 MOL     -0.214309
    109 C39        -0.6890    0.4940    4.9300 c3        1 MOL     -0.372669
    110 H46         0.1510    3.8570    1.8210 hn        1 MOL      0.307485
    111 H47        -0.8950    1.9880    2.4660 h1        1 MOL     -0.056875
    112 H48         1.8870    1.0040    2.5920 hc        1 MOL     -0.003349
    113 H49         1.3160   -0.2780    4.4200 hc        1 MOL      0.173519
    114 H50         0.0170   -0.6340    3.2220 hc        1 MOL      0.173519
    115 H51         1.8490    1.8420    5.1420 hc        1 MOL      0.058520
    116 H52         2.1880    3.0930    3.8870 hc        1 MOL      0.058520
    117 H53         0.5740    2.9160    4.4550 hc        1 MOL      0.058520
    118 H54        -1.5580    0.8770    4.3990 hc        1 MOL      0.104269
    119 H55        -1.0170   -0.3800    5.4900 hc        1 MOL      0.104269
    120 H56        -0.3650    1.1660    5.7310 hc        1 MOL      0.104269
    121 N11        -1.4980    0.2650    1.0350 n         1 MOL     -0.334783
    122 C40        -1.9270   -0.7910    0.0480 c3        1 MOL     -0.216258
    123 C41        -3.3820   -0.8300   -0.3840 c         1 MOL      0.662072
    124 O16        -3.7650   -1.7120   -1.1130 o         1 MOL     -0.551286
    125 C42        -1.5930   -2.1530    0.6910 c3        1 MOL      0.233015
    126 O17        -2.3140   -2.2640    1.9740 oh        1 MOL     -0.617603
    127 H57        -2.1830    0.7420    1.6110 hn        1 MOL      0.335990
    128 H58        -1.3090   -0.6120   -0.8320 h1        1 MOL      0.132431
    129 H59        -0.5350   -2.3450    0.8800 h1        1 MOL      0.021967
    130 H60        -1.9390   -2.9880    0.0770 h1        1 MOL      0.021967
    131 H61        -1.9000   -2.9250    2.5300 ho        1 MOL      0.399564
    132 N12        -4.1950    0.1410    0.0180 n         1 MOL     -0.502319
    133 C43        -5.6520    0.1420   -0.2070 c3        1 MOL      0.105838
    134 C44        -5.8570    0.5540   -1.7170 c         1 MOL      0.610696
    135 O18        -5.0110    1.2040   -2.3620 o         1 MOL     -0.553323
    136 C45        -6.3390    1.1380    0.7230 c3        1 MOL     -0.211835
    137 H62        -3.8240    0.8030    0.6840 hn        1 MOL      0.248113
    138 H63        -6.0770   -0.8380    0.0050 h1        1 MOL      0.106937
    139 H64        -6.1810    0.8950    1.7730 hc        1 MOL      0.075565
    140 H65        -5.9490    2.1450    0.5360 hc        1 MOL      0.075565
    141 H66        -7.4100    1.1130    0.5530 hc        1 MOL      0.075565
    142 N13        -7.0180    0.2740   -2.4140 n         1 MOL     -0.691086
    143 C46        -8.3490   -0.1810   -1.9310 c3        1 MOL      0.263071
    144 C47        -9.5420    0.4470   -2.6810 c         1 MOL      0.422330
    145 O19        -9.4480    0.6260   -3.9180 o         1 MOL     -0.532035
    146 C48        -8.3760   -1.6690   -2.0580 c3        1 MOL     -0.123429
    147 H67        -6.8940    0.4790   -3.3890 hn        1 MOL      0.368994
    148 H68        -8.3660    0.0470   -0.8630 h1        1 MOL      0.009379
    149 H69        -7.7140   -2.1340   -1.3350 hc        1 MOL      0.038096
    150 H70        -9.3690   -1.9300   -1.7030 hc        1 MOL      0.038096
    151 H71        -8.3000   -2.0820   -3.0670 hc        1 MOL      0.038096
    152 N14       -10.5460    1.0270   -2.0270 n         1 MOL     -0.407385
    153 C49       -10.7830    0.9440   -0.5390 c3        1 MOL      0.056075
    154 C50        -9.9610    1.9660    0.2280 c         1 MOL      0.383308
    155 O20        -9.6810    1.6790    1.4200 o         1 MOL     -0.519967
    156 C51       -12.2820    0.9860   -0.4290 c3        1 MOL      0.012215
    157 C52       -12.7610    0.7020    0.9880 c3        1 MOL     -0.244129
    158 C53       -14.3040    0.6710    1.0270 c         1 MOL      0.691543
    159 O21       -14.9980    1.3180    1.8520 o         1 MOL     -0.644342
    160 O22       -14.9080   -0.1720    0.2820 o         1 MOL     -0.644342
    161 H72       -11.1790    1.6120   -2.5370 hn        1 MOL      0.293821
    162 H73       -10.5710   -0.0610   -0.1690 h1        1 MOL      0.090410
    163 H74       -12.7480    0.3330   -1.1630 hc        1 MOL      0.013908
    164 H75       -12.4710    2.0020   -0.7620 hc        1 MOL      0.013908
    165 H76       -12.5960    1.5200    1.6930 hc        1 MOL      0.066117
    166 H77       -12.2990   -0.2150    1.3540 hc        1 MOL      0.066117
    167 N15        -9.5360    3.1230   -0.3240 n         1 MOL     -0.191093
    168 C54        -8.7420    4.1320    0.3340 c3        1 MOL     -0.294095
    169 H78        -9.0330    4.1970    1.3820 h1        1 MOL      0.125962
    170 H79        -7.6870    3.8660    0.2660 h1        1 MOL      0.125962
    171 H80        -8.9060    5.0960   -0.1480 h1        1 MOL      0.125962
    172 H81        -9.8290    3.3290   -1.2670 hn        1 MOL      0.229035
    173 Ca1         2.9420    0.0180   -1.0730 Ca        1 MOL      1.702452
    174 O23         3.6640    1.7070   -2.9080 oh        1 MOL     -0.829188
    175 H82         4.5290    2.1060   -3.0390 ho        1 MOL      0.404400
    176 H83         3.0390    2.4010   -3.1230 ho        1 MOL      0.404400
    177 O24         0.7500   -2.1600   -1.6860 oh        1 MOL     -0.829188
    178 H84         1.5250   -2.3090   -2.2240 ho        1 MOL      0.404400
    179 H85         0.0130   -2.4420   -2.2240 ho        1 MOL      0.404400
    180 O25         0.7670    1.3290   -2.1800 oh        1 MOL     -0.829188
    181 H86         0.7330    2.2900   -2.1530 ho        1 MOL      0.404400
    182 H87        -0.1320    1.0480   -2.0350 ho        1 MOL      0.404400
@<TRIPOS>BOND
     1    1    2 1   
     2    1    4 1   
     3    1    5 1   
     4    1    6 1   
     5    2    3 2   
     6    2    7 1   
     7    7    8 1   
     8    7   15 1   
     9    8    9 1   
    10    8   11 1   
    11    8   16 1   
    12    9   10 2   
    13    9   19 1   
    14   11   12 1   
    15   11   17 1   
    16   11   18 1   
    17   12   13 1   
    18   12   14 1   
    19   19   20 1   
    20   19   28 1   
    21   20   21 1   
    22   20   23 1   
    23   20   29 1   
    24   21   22 2   
    25   21   41 1   
    26   23   24 1   
    27   23   30 1   
    28   23   31 1   
    29   24   25 1   
    30   24   32 1   
    31   24   33 1   
    32   25   26 1   
    33   25   34 1   
    34   25   35 1   
    35   26   27 1   
    36   26   36 1   
    37   26   37 1   
    38   27   38 1   
    39   27   39 1   
    40   27   40 1   
    41   41   42 1   
    42   41   49 1   
    43   42   43 1   
    44   42   45 1   
    45   42   50 1   
    46   43   44 2   
    47   43   53 1   
    48   45   46 1   
    49   45   51 1   
    50   45   52 1   
    51   46   47 1   
    52   46   48 1   
    53   53   54 1   
    54   53   57 1   
    55   54   55 1   
    56   54   58 1   
    57   54   59 1   
    58   55   56 2   
    59   55   60 1   
    60   60   61 1   
    61   60   68 1   
    62   61   62 1   
    63   61   64 1   
    64   61   69 1   
    65   62   63 2   
    66   62   74 1   
    67   64   65 1   
    68   64   70 1   
    69   64   71 1   
    70   65   66 1   
    71   65   67 2   
    72   66   72 1   
    73   66   73 1   
    74   74   75 1   
    75   74   78 1   
    76   75   76 1   
    77   75   79 1   
    78   75   80 1   
    79   76   77 2   
    80   76   81 1   
    81   81   82 1   
    82   81   93 1   
    83   82   83 1   
    84   82   85 1   
    85   82   94 1   
    86   83   84 2   
    87   83  102 1   
    88   85   86 1   
    89   85   95 1   
    90   85   96 1   
    91   86   87 ar  
    92   86   88 ar  
    93   87   89 ar  
    94   87   97 1   
    95   88   90 ar  
    96   88   98 1   
    97   89   91 ar  
    98   89   99 1   
    99   90   91 ar  
   100   90  100 1   
   101   91   92 1   
   102   92  101 1   
   103  102  103 1   
   104  102  110 1   
   105  103  104 1   
   106  103  106 1   
   107  103  111 1   
   108  104  105 2   
   109  104  121 1   
   110  106  107 1   
   111  106  108 1   
   112  106  112 1   
   113  107  109 1   
   114  107  113 1   
   115  107  114 1   
   116  108  115 1   
   117  108  116 1   
   118  108  117 1   
   119  109  118 1   
   120  109  119 1   
   121  109  120 1   
   122  121  122 1   
   123  121  127 1   
   124  122  123 1   
   125  122  125 1   
   126  122  128 1   
   127  123  124 2   
   128  123  132 1   
   129  125  126 1   
   130  125  129 1   
   131  125  130 1   
   132  126  131 1   
   133  132  133 1   
   134  132  137 1   
   135  133  134 1   
   136  133  136 1   
   137  133  138 1   
   138  134  135 2   
   139  134  142 1   
   140  136  139 1   
   141  136  140 1   
   142  136  141 1   
   143  142  143 1   
   144  142  147 1   
   145  143  144 1   
   146  143  146 1   
   147  143  148 1   
   148  144  145 2   
   149  144  152 1   
   150  146  149 1   
   151  146  150 1   
   152  146  151 1   
   153  152  153 1   
   154  152  161 1   
   155  153  154 1   
   156  153  156 1   
   157  153  162 1   
   158  154  155 2   
   159  154  167 1   
   160  156  157 1   
   161  156  163 1   
   162  156  164 1   
   163  157  158 1   
   164  157  165 1   
   165  157  166 1   
   166  158  159 1   
   167  158  160 1   
   168  167  168 1   
   169  167  172 1   
   170  168  169 1   
   171  168  170 1   
   172  168  171 1   
   173  174  175 1   
   174  174  176 1   
   175  177  178 1   
   176  177  179 1   
   177  180  181 1   
   178  180  182 1   
@<TRIPOS>SUBSTRUCTURE
     1 MOL         1 TEMP              0 ****  ****    0 ROOT
