@<TRIPOS>MOLECULE
MOL
  195   189     1     0     0
SMALL
resp


@<TRIPOS>ATOM
      1 C1          5.5760   -7.1810   -0.6920 c3        1 MOL     -0.431017
      2 C2          4.9990   -5.7690   -0.6040 c         1 MOL      0.772760
      3 O1          4.7120   -5.3430    0.4730 o         1 MOL     -0.569835
      4 H1          5.3200   -7.6190   -1.6560 hc        1 MOL      0.106153
      5 H2          6.6600   -7.1380   -0.5890 hc        1 MOL      0.106153
      6 H3          5.1590   -7.7950    0.1070 hc        1 MOL      0.106153
      7 N1          5.1150   -4.9840   -1.6590 n         1 MOL     -0.696886
      8 C3          4.9380   -3.5020   -1.5890 c3        1 MOL      0.407012
      9 C4          3.5270   -2.9080   -1.6010 c         1 MOL      0.246809
     10 O2          3.3510   -1.6910   -1.7170 o         1 MOL     -0.543866
     11 C5          5.9620   -2.8750   -2.5800 c3        1 MOL     -0.255703
     12 C6          7.4630   -3.3100   -2.4100 c         1 MOL      0.816793
     13 O3          7.8140   -4.3290   -2.9940 o         1 MOL     -0.710344
     14 O4          8.2610   -2.5460   -1.9120 o         1 MOL     -0.710344
     15 H4          5.4050   -5.3650   -2.5520 hn        1 MOL      0.298456
     16 H5          5.2450   -3.1420   -0.6150 h1        1 MOL      0.048247
     17 H6          5.9150   -1.7990   -2.4390 hc        1 MOL      0.007735
     18 H7          5.7110   -2.9060   -3.6380 hc        1 MOL      0.007735
     19 N2          2.5140   -3.6950   -1.3350 n         1 MOL     -0.277325
     20 C7          1.0690   -3.2640   -1.4740 c3        1 MOL      0.327551
     21 C8          0.2190   -3.4740   -0.2260 c         1 MOL      0.489362
     22 O5          0.5150   -4.4940    0.4060 o         1 MOL     -0.513597
     23 C9          0.4780   -3.9600   -2.6970 c3        1 MOL     -0.535001
     24 C10         1.2020   -3.4210   -3.9620 c3        1 MOL      0.011598
     25 C11         0.5560   -3.8810   -5.2850 c3        1 MOL     -0.147936
     26 C12         1.3470   -3.4530   -6.5210 c3        1 MOL      0.146815
     27 N3          0.6280   -3.4240   -7.7980 n4        1 MOL     -0.255079
     28 H8          2.6830   -4.6610   -1.1140 hn        1 MOL      0.187070
     29 H9          1.0080   -2.2210   -1.7600 h1        1 MOL     -0.003069
     30 H10        -0.5450   -3.5950   -2.7630 hc        1 MOL      0.174391
     31 H11         0.5760   -5.0440   -2.6280 hc        1 MOL      0.174391
     32 H12         2.2760   -3.6220   -4.0240 hc        1 MOL      0.090354
     33 H13         1.1470   -2.3320   -3.9830 hc        1 MOL      0.090354
     34 H14        -0.4150   -3.3980   -5.3210 hc        1 MOL      0.061035
     35 H15         0.5080   -4.9690   -5.2740 hc        1 MOL      0.061035
     36 H16         2.1900   -4.1330   -6.5850 hx        1 MOL      0.036316
     37 H17         1.7780   -2.4750   -6.3100 hx        1 MOL      0.036316
     38 H18         1.2620   -3.2120   -8.5640 hn        1 MOL      0.283511
     39 H19         0.2810   -4.3450   -8.0360 hn        1 MOL      0.283511
     40 H20        -0.2430   -2.9060   -7.8130 hn        1 MOL      0.283511
     41 N4         -0.8670   -2.7220    0.1550 n         1 MOL     -0.443490
     42 C13        -1.5440   -1.4950   -0.3550 c3        1 MOL     -0.042208
     43 C14        -1.9400   -1.5290   -1.8810 c         1 MOL      0.552702
     44 O6         -1.2190   -1.1620   -2.7560 o         1 MOL     -0.561093
     45 C15        -0.6570   -0.2430    0.0700 c3        1 MOL      0.027605
     46 C16        -0.7670   -0.1220    1.5950 c         1 MOL      0.648956
     47 O7         -1.8580   -0.5230    2.1170 o         1 MOL     -0.816894
     48 O8          0.1860    0.1580    2.3220 o         1 MOL     -0.816894
     49 H21        -1.2030   -2.8830    1.1010 hn        1 MOL      0.234415
     50 H22        -2.5380   -1.4720    0.0780 h1        1 MOL      0.104746
     51 H23        -1.1020    0.6340   -0.4050 hc        1 MOL      0.028724
     52 H24         0.3990   -0.2610   -0.1920 hc        1 MOL      0.028724
     53 N5         -3.1340   -1.9710   -2.2770 n         1 MOL     -0.452263
     54 C17        -4.3430   -2.2670   -1.4320 c3        1 MOL     -0.081439
     55 C18        -5.4990   -2.8580   -2.1580 c         1 MOL      0.709300
     56 O9         -5.3750   -3.1530   -3.3210 o         1 MOL     -0.597253
     57 H25        -3.2380   -2.0980   -3.2790 hn        1 MOL      0.294279
     58 H26        -4.6000   -1.3400   -0.9110 h1        1 MOL      0.070299
     59 H27        -4.0710   -2.9140   -0.5880 h1        1 MOL      0.070299
     60 N6         -6.5730   -3.1310   -1.4580 n         1 MOL     -0.610660
     61 C19        -6.6680   -3.1470   -0.0230 c3        1 MOL      0.193060
     62 C20        -7.5260   -1.9370    0.3200 c         1 MOL      0.289502
     63 O10        -8.5160   -1.5900   -0.3790 o         1 MOL     -0.412081
     64 C21        -7.3550   -4.4290    0.4640 c3        1 MOL     -0.076865
     65 C22        -8.7430   -4.7550   -0.2320 c         1 MOL      0.698925
     66 O11        -8.7600   -5.2790   -1.3620 o         1 MOL     -0.658898
     67 O12        -9.7270   -4.4460    0.4220 o         1 MOL     -0.658898
     68 H28        -7.3480   -3.4500   -2.0330 hn        1 MOL      0.336710
     69 H29        -5.7330   -3.0450    0.5330 h1        1 MOL     -0.002662
     70 H30        -7.5400   -4.3440    1.5400 hc        1 MOL     -0.017303
     71 H31        -6.6560   -5.2430    0.2680 hc        1 MOL     -0.017303
     72 N7         -7.2670   -1.4500    1.5380 n         1 MOL     -0.144676
     73 C23        -8.1200   -0.3220    2.1610 c3        1 MOL     -0.495493
     74 C24        -7.8520    1.0550    1.6000 c         1 MOL      0.562405
     75 O13        -8.7020    2.0030    1.5440 o         1 MOL     -0.543156
     76 H32        -6.4410   -1.7810    2.0160 hn        1 MOL      0.206134
     77 H33        -7.8770   -0.2260    3.2170 h1        1 MOL      0.225251
     78 H34        -9.1600   -0.6300    2.0250 h1        1 MOL      0.225251
     79 N8         -6.6090    1.2890    1.0770 n         1 MOL     -0.229579
     80 C25        -6.2120    2.5690    0.3970 c3        1 MOL     -0.251584
     81 C26        -5.1000    2.2960   -0.5640 c         1 MOL      0.465857
     82 O14        -4.2430    1.4490   -0.3240 o         1 MOL     -0.418511
     83 C27        -5.7980    3.7000    1.3450 c3        1 MOL      0.283037
     84 C28        -4.7200    3.2090    2.3870 c3        1 MOL     -0.039908
     85 O15        -6.8790    4.3300    2.1220 oh        1 MOL     -0.626480
     86 H35        -5.8860    0.5840    1.1630 hn        1 MOL      0.174480
     87 H36        -7.0810    2.8670   -0.1810 h1        1 MOL      0.154007
     88 H37        -5.4140    4.5430    0.7760 h1        1 MOL      0.037085
     89 H38        -7.6960    4.0020    1.7250 ho        1 MOL      0.397744
     90 H39        -5.0980    2.4740    3.0810 hc        1 MOL      0.010854
     91 H40        -3.8150    2.9080    1.8500 hc        1 MOL      0.010854
     92 H41        -4.4470    4.0210    3.0620 hc        1 MOL      0.010854
     93 N9         -4.9510    3.0800   -1.6050 n         1 MOL     -0.249934
     94 C29        -3.8350    3.0610   -2.6100 c3        1 MOL     -0.242615
     95 C30        -2.5720    3.8540   -2.0960 c         1 MOL      0.448100
     96 O16        -2.0140    4.7040   -2.7670 o         1 MOL     -0.486571
     97 C31        -4.3250    3.3900   -4.0150 c3        1 MOL      0.281131
     98 C32        -4.8690    4.8100   -4.2490 c3        1 MOL      0.077734
     99 C33        -5.4270    2.4430   -4.5350 c3        1 MOL     -0.391634
    100 C34        -4.8990    5.3390   -5.6300 c3        1 MOL     -0.319494
    101 H42        -5.6800    3.7550   -1.7890 hn        1 MOL      0.194066
    102 H43        -3.5270    2.0360   -2.8150 h1        1 MOL      0.165629
    103 H44        -3.4940    3.2550   -4.7070 hc        1 MOL     -0.002608
    104 H45        -4.3550    5.4620   -3.5490 hc        1 MOL      0.005113
    105 H46        -5.9210    4.8490   -3.9640 hc        1 MOL      0.005113
    106 H47        -5.0980    1.4050   -4.5200 hc        1 MOL      0.093120
    107 H48        -6.2150    2.6180   -3.8010 hc        1 MOL      0.093120
    108 H49        -5.9020    2.7210   -5.4820 hc        1 MOL      0.093120
    109 H50        -4.7000    4.5280   -6.3290 hc        1 MOL      0.081574
    110 H51        -5.8930    5.7510   -5.8050 hc        1 MOL      0.081574
    111 H52        -4.0680    6.0350   -5.7420 hc        1 MOL      0.081574
    112 N10        -2.2990    3.8170   -0.7530 n         1 MOL     -0.294469
    113 C35        -1.0660    4.3930   -0.2020 c3        1 MOL      0.237089
    114 C36         0.2130    3.7440   -0.7790 c         1 MOL      0.575119
    115 O17         0.2020    2.9040   -1.5800 o         1 MOL     -0.473993
    116 C37        -1.0650    4.5270    1.3450 c3        1 MOL      0.019395
    117 C38        -0.8000    3.2350    2.1310 c3        1 MOL     -0.371352
    118 O18        -2.3090    5.1700    1.6800 oh        1 MOL     -0.588559
    119 H53        -3.0180    3.3740   -0.2010 hn        1 MOL      0.189881
    120 H54        -0.9570    5.4000   -0.6080 h1        1 MOL      0.035572
    121 H55        -0.3010    5.2680    1.5870 h1        1 MOL      0.081460
    122 H56        -2.3780    5.1390    2.6370 ho        1 MOL      0.397489
    123 H57         0.1470    2.8480    1.7830 hc        1 MOL      0.140259
    124 H58        -0.6630    3.4520    3.1910 hc        1 MOL      0.140259
    125 H59        -1.6520    2.5720    1.9460 hc        1 MOL      0.140259
    126 N11         1.3890    4.3280   -0.4850 n         1 MOL     -0.513654
    127 C39         2.7610    3.9570   -1.0270 c3        1 MOL      0.148670
    128 C40         3.8140    3.7880    0.0830 c         1 MOL      0.474781
    129 O19         3.5490    4.4520    1.0710 o         1 MOL     -0.497189
    130 C41         3.2870    4.7310   -2.1830 c3        1 MOL      0.253106
    131 C42         3.4470    6.2420   -1.8490 c3        1 MOL     -0.388627
    132 O20         2.4710    4.6760   -3.3600 oh        1 MOL     -0.554245
    133 H60         1.3100    5.1220    0.1450 hn        1 MOL      0.232767
    134 H61         2.6930    2.9630   -1.4700 h1        1 MOL      0.038109
    135 H62         4.2520    4.2670   -2.4190 h1        1 MOL     -0.023103
    136 H63         3.1290    4.8170   -4.0420 ho        1 MOL      0.376820
    137 H64         3.8710    6.7660   -2.7060 hc        1 MOL      0.103447
    138 H65         2.4690    6.6980   -1.7640 hc        1 MOL      0.103447
    139 H66         4.0270    6.4170   -0.9460 hc        1 MOL      0.103447
    140 N12         4.9200    3.1080   -0.0900 n         1 MOL     -0.444923
    141 C43         5.9750    2.9730    0.9440 c3        1 MOL      0.105685
    142 C44         5.5400    1.8770    1.9310 c         1 MOL      0.632320
    143 O21         5.6400    2.1070    3.1750 o         1 MOL     -0.643824
    144 C45         7.3280    2.7230    0.3760 c3        1 MOL     -0.130138
    145 C46         7.9180    3.8950   -0.4720 c3        1 MOL      0.126743
    146 C47         9.2720    3.4350   -0.8630 c3        1 MOL     -0.016886
    147 C48         9.7760    4.2600   -2.0790 c3        1 MOL      0.031014
    148 N13        11.0860    3.6680   -2.5220 n4        1 MOL     -0.233700
    149 H67         5.0790    2.5530   -0.9230 hn        1 MOL      0.295388
    150 H68         6.0550    3.8620    1.5690 h1        1 MOL      0.063946
    151 H69         7.2620    1.7640   -0.1420 hc        1 MOL      0.053946
    152 H70         7.9880    2.4950    1.2140 hc        1 MOL      0.053946
    153 H71         8.0450    4.8770   -0.0090 hc        1 MOL     -0.021693
    154 H72         7.2970    4.0630   -1.3540 hc        1 MOL     -0.021693
    155 H73         9.2490    2.3630   -1.0940 hc        1 MOL      0.040222
    156 H74         9.9320    3.6600   -0.0270 hc        1 MOL      0.040222
    157 H75        10.0280    5.2530   -1.7200 hx        1 MOL      0.071682
    158 H76         9.0850    4.2930   -2.9210 hx        1 MOL      0.071682
    159 H77        11.0030    2.6530   -2.5200 hn        1 MOL      0.247759
    160 H78        11.4080    3.8720   -3.4580 hn        1 MOL      0.247759
    161 H79        11.8040    3.8020   -1.8260 hn        1 MOL      0.247759
    162 N14         4.8930    0.7570    1.5670 n         1 MOL     -0.628432
    163 C49         4.4290   -0.3230    2.4890 c3        1 MOL      0.091211
    164 C50         5.6160   -1.0920    2.9740 c         1 MOL      0.465828
    165 O22         6.2790   -1.8180    2.2260 o         1 MOL     -0.551002
    166 C51         3.3490   -1.1800    1.9160 c3        1 MOL      0.615278
    167 C52         2.8370   -2.4580    2.6940 c3        1 MOL     -0.279954
    168 C53         2.2780   -2.1130    4.1010 c         1 MOL      0.812553
    169 O23         3.1490   -1.5650    4.8150 o         1 MOL     -0.800338
    170 O24         1.0780   -2.2470    4.4750 o         1 MOL     -0.800338
    171 H80         4.6090    0.6580    0.5960 hn        1 MOL      0.280351
    172 H81         4.0000    0.1530    3.3740 h1        1 MOL      0.120317
    173 H82         3.6750   -1.5650    0.9490 hc        1 MOL     -0.117187
    174 H83         2.4940   -0.5090    1.8120 hc        1 MOL     -0.117187
    175 H84         3.6560   -3.1830    2.8030 hc        1 MOL      0.037187
    176 H85         2.0310   -2.8880    2.1030 hc        1 MOL      0.037187
    177 N15         6.0100   -0.8490    4.1910 n         1 MOL     -0.190371
    178 C54         7.1600   -1.6000    4.7840 c3        1 MOL     -0.334073
    179 H86         7.3050   -1.2850    5.8170 h1        1 MOL      0.128441
    180 H87         6.9490   -2.6690    4.7570 h1        1 MOL      0.128441
    181 H88         8.0630   -1.3930    4.2110 h1        1 MOL      0.128441
    182 H89         5.4040   -0.2230    4.7070 hn        1 MOL      0.268341
    183 Ca1        -1.0970   -0.8730    4.5060 Ca        1 MOL      1.796020
    184 O25        -0.8520   -2.9940    6.2410 oh        1 MOL     -0.850872
    185 H90        -0.0230   -3.2460    5.8220 ho        1 MOL      0.419208
    186 H91        -0.6960   -3.1490    7.1760 ho        1 MOL      0.419208
    187 O26        -2.4780    1.3710    5.0320 oh        1 MOL     -0.850872
    188 H92        -3.3460    0.9880    5.0270 ho        1 MOL      0.419208
    189 H93        -2.6210    2.2990    5.2290 ho        1 MOL      0.419208
    190 O27        -1.8290   -0.5480    7.1710 oh        1 MOL     -0.850872
    191 H94        -2.1520    0.1570    7.7280 ho        1 MOL      0.419208
    192 H95        -1.3970   -1.1460    7.7740 ho        1 MOL      0.419208
    193 O28         0.8380    0.5560    5.8950 oh        1 MOL     -0.850872
    194 H96         1.5170    1.1470    5.5590 ho        1 MOL      0.419208
    195 H97         0.7350    0.8110    6.8170 ho        1 MOL      0.419208
@<TRIPOS>BOND
     1    1    2 1   
     2    1    4 1   
     3    1    5 1   
     4    1    6 1   
     5    2    3 2   
     6    2    7 1   
     7    7    8 1   
     8    7   15 1   
     9    8    9 1   
    10    8   11 1   
    11    8   16 1   
    12    9   10 2   
    13    9   19 1   
    14   11   12 1   
    15   11   17 1   
    16   11   18 1   
    17   12   13 1   
    18   12   14 1   
    19   19   20 1   
    20   19   28 1   
    21   20   21 1   
    22   20   23 1   
    23   20   29 1   
    24   21   22 2   
    25   21   41 1   
    26   23   24 1   
    27   23   30 1   
    28   23   31 1   
    29   24   25 1   
    30   24   32 1   
    31   24   33 1   
    32   25   26 1   
    33   25   34 1   
    34   25   35 1   
    35   26   27 1   
    36   26   36 1   
    37   26   37 1   
    38   27   38 1   
    39   27   39 1   
    40   27   40 1   
    41   41   42 1   
    42   41   49 1   
    43   42   43 1   
    44   42   45 1   
    45   42   50 1   
    46   43   44 2   
    47   43   53 1   
    48   45   46 1   
    49   45   51 1   
    50   45   52 1   
    51   46   47 1   
    52   46   48 1   
    53   53   54 1   
    54   53   57 1   
    55   54   55 1   
    56   54   58 1   
    57   54   59 1   
    58   55   56 2   
    59   55   60 1   
    60   60   61 1   
    61   60   68 1   
    62   61   62 1   
    63   61   64 1   
    64   61   69 1   
    65   62   63 2   
    66   62   72 1   
    67   64   65 1   
    68   64   70 1   
    69   64   71 1   
    70   65   66 1   
    71   65   67 1   
    72   72   73 1   
    73   72   76 1   
    74   73   74 1   
    75   73   77 1   
    76   73   78 1   
    77   74   75 2   
    78   74   79 1   
    79   79   80 1   
    80   79   86 1   
    81   80   81 1   
    82   80   83 1   
    83   80   87 1   
    84   81   82 2   
    85   81   93 1   
    86   83   84 1   
    87   83   85 1   
    88   83   88 1   
    89   84   90 1   
    90   84   91 1   
    91   84   92 1   
    92   85   89 1   
    93   93   94 1   
    94   93  101 1   
    95   94   95 1   
    96   94   97 1   
    97   94  102 1   
    98   95   96 2   
    99   95  112 1   
   100   97   98 1   
   101   97   99 1   
   102   97  103 1   
   103   98  100 1   
   104   98  104 1   
   105   98  105 1   
   106   99  106 1   
   107   99  107 1   
   108   99  108 1   
   109  100  109 1   
   110  100  110 1   
   111  100  111 1   
   112  112  113 1   
   113  112  119 1   
   114  113  114 1   
   115  113  116 1   
   116  113  120 1   
   117  114  115 2   
   118  114  126 1   
   119  116  117 1   
   120  116  118 1   
   121  116  121 1   
   122  117  123 1   
   123  117  124 1   
   124  117  125 1   
   125  118  122 1   
   126  126  127 1   
   127  126  133 1   
   128  127  128 1   
   129  127  130 1   
   130  127  134 1   
   131  128  129 2   
   132  128  140 1   
   133  130  131 1   
   134  130  132 1   
   135  130  135 1   
   136  131  137 1   
   137  131  138 1   
   138  131  139 1   
   139  132  136 1   
   140  140  141 1   
   141  140  149 1   
   142  141  142 1   
   143  141  144 1   
   144  141  150 1   
   145  142  143 2   
   146  142  162 1   
   147  144  145 1   
   148  144  151 1   
   149  144  152 1   
   150  145  146 1   
   151  145  153 1   
   152  145  154 1   
   153  146  147 1   
   154  146  155 1   
   155  146  156 1   
   156  147  148 1   
   157  147  157 1   
   158  147  158 1   
   159  148  159 1   
   160  148  160 1   
   161  148  161 1   
   162  162  163 1   
   163  162  171 1   
   164  163  164 1   
   165  163  166 1   
   166  163  172 1   
   167  164  165 2   
   168  164  177 1   
   169  166  167 1   
   170  166  173 1   
   171  166  174 1   
   172  167  168 1   
   173  167  175 1   
   174  167  176 1   
   175  168  169 1   
   176  168  170 1   
   177  177  178 1   
   178  177  182 1   
   179  178  179 1   
   180  178  180 1   
   181  178  181 1   
   182  184  185 1   
   183  184  186 1   
   184  187  188 1   
   185  187  189 1   
   186  190  191 1   
   187  190  192 1   
   188  193  194 1   
   189  193  195 1   
@<TRIPOS>SUBSTRUCTURE
     1 MOL         1 TEMP              0 ****  ****    0 ROOT
