@<TRIPOS>MOLECULE
MOL
  188   182     1     0     0
SMALL
resp


@<TRIPOS>ATOM
      1 C1         -5.5620    0.3190   -6.0550 c3        1 MOL     -0.487579
      2 C2         -5.3840    0.1810   -4.4920 c         1 MOL      0.584538
      3 O1         -4.3350   -0.1980   -4.0490 o         1 MOL     -0.552922
      4 H1         -6.5680    0.6750   -6.2760 hc        1 MOL      0.134826
      5 H2         -4.8330    1.0310   -6.4430 hc        1 MOL      0.134826
      6 H3         -5.4090   -0.6510   -6.5270 hc        1 MOL      0.134826
      7 N1         -6.4290    0.2510   -3.6730 n         1 MOL     -0.389365
      8 C3         -6.6870   -0.1220   -2.3120 c3        1 MOL      0.040263
      9 C4         -6.3250   -1.5250   -1.8070 c         1 MOL      0.364669
     10 O2         -7.1420   -2.2070   -1.2630 o         1 MOL     -0.509835
     11 C5         -5.9920    0.9620   -1.4420 c3        1 MOL     -0.266275
     12 C6         -6.3390    0.9210    0.0370 c         1 MOL      0.812916
     13 O3         -5.4300    0.7330    0.8690 o         1 MOL     -0.710695
     14 O4         -7.4870    1.2400    0.4270 o         1 MOL     -0.710695
     15 H4         -7.2730    0.3140   -4.2270 hn        1 MOL      0.262040
     16 H5         -7.7400    0.1150   -2.1660 h1        1 MOL      0.072895
     17 H6         -6.2380    1.9630   -1.8110 hc        1 MOL      0.072640
     18 H7         -4.9170    0.7920   -1.5470 hc        1 MOL      0.072640
     19 N2         -5.1160   -2.1060   -2.1400 n         1 MOL     -0.106488
     20 C7         -4.6560   -3.4590   -1.7560 c3        1 MOL     -0.083270
     21 C8         -3.3270   -3.6170   -1.0020 c         1 MOL      0.427607
     22 O5         -3.0350   -4.7160   -0.6060 o         1 MOL     -0.504299
     23 C9         -4.5820   -4.3300   -3.0300 c3        1 MOL      0.009968
     24 C10        -5.8370   -4.3580   -3.9230 c3        1 MOL      0.000707
     25 C11        -7.0240   -5.1930   -3.3220 c3        1 MOL     -0.146224
     26 C12        -6.6360   -6.5710   -2.9400 c3        1 MOL      0.243896
     27 N3         -7.6410   -7.2620   -2.0450 n4        1 MOL     -0.349044
     28 H8         -4.5560   -1.5790   -2.8010 hn        1 MOL      0.257358
     29 H9         -5.4300   -4.0030   -1.2080 h1        1 MOL      0.116832
     30 H10        -4.2470   -5.3260   -2.7380 hc        1 MOL      0.012674
     31 H11        -3.7860   -3.8420   -3.5990 hc        1 MOL      0.012674
     32 H12        -5.5000   -4.8380   -4.8460 hc        1 MOL      0.015634
     33 H13        -6.0750   -3.3190   -4.1560 hc        1 MOL      0.015634
     34 H14        -7.7680   -5.3520   -4.1070 hc        1 MOL      0.043194
     35 H15        -7.4380   -4.6910   -2.4420 hc        1 MOL      0.043194
     36 H16        -5.6760   -6.5120   -2.4350 hx        1 MOL      0.018530
     37 H17        -6.5960   -7.2440   -3.7940 hx        1 MOL      0.018530
     38 H18        -8.4200   -7.5620   -2.6250 hn        1 MOL      0.316210
     39 H19        -7.2500   -8.0650   -1.5800 hn        1 MOL      0.316210
     40 H20        -8.0820   -6.6760   -1.3500 hn        1 MOL      0.316210
     41 N4         -2.5600   -2.5420   -0.8180 n         1 MOL     -0.157946
     42 C13        -1.3710   -2.5720    0.0540 c3        1 MOL     -0.258162
     43 C14        -1.6550   -3.0870    1.4230 c         1 MOL      0.591778
     44 O6         -2.7490   -2.8750    1.9760 o         1 MOL     -0.470491
     45 C15        -0.7940   -1.2030    0.0270 c3        1 MOL     -0.072962
     46 C16         0.4470   -1.1270    0.9250 c         1 MOL      0.757171
     47 O7          0.3090   -0.9960    2.1680 o         1 MOL     -0.703836
     48 O8          1.5490   -1.3150    0.4400 o         1 MOL     -0.703836
     49 H21        -2.9800   -1.6580   -1.0620 hn        1 MOL      0.091924
     50 H22        -0.7860   -3.3270   -0.4700 h1        1 MOL      0.102160
     51 H23        -1.5670   -0.4770    0.2830 hc        1 MOL      0.095411
     52 H24        -0.5090   -0.9220   -0.9920 hc        1 MOL      0.095411
     53 N5         -0.7670   -3.9190    1.9960 n         1 MOL     -0.450552
     54 C17        -1.0570   -4.6170    3.2540 c3        1 MOL     -0.227961
     55 C18        -1.2560   -3.7380    4.5040 c         1 MOL      0.464081
     56 O9         -1.7050   -4.2040    5.5380 o         1 MOL     -0.561402
     57 H25         0.1600   -3.9230    1.6060 hn        1 MOL      0.358158
     58 H26        -0.1530   -5.1870    3.4230 h1        1 MOL      0.145174
     59 H27        -1.9230   -5.2740    3.1130 h1        1 MOL      0.145174
     60 N6         -0.8970   -2.4490    4.4570 n         1 MOL     -0.096297
     61 C19        -1.3070   -1.3970    5.4580 c3        1 MOL      0.026674
     62 C20        -2.1860   -0.2060    4.8170 c         1 MOL      0.497653
     63 O10        -3.0910    0.3260    5.5010 o         1 MOL     -0.574957
     64 C21        -0.1510   -0.9200    6.3260 c3        1 MOL     -0.174296
     65 C22         0.7260    0.1130    5.6340 c         1 MOL      0.569330
     66 N7          0.6550    1.3420    6.1050 n         1 MOL     -0.786412
     67 O11         1.3790   -0.1780    4.6800 o         1 MOL     -0.563263
     68 H28        -0.4120   -2.1270    3.6200 hn        1 MOL      0.010596
     69 H29        -1.9350   -1.8460    6.2290 h1        1 MOL      0.088292
     70 H30         0.4430   -1.7970    6.6040 hc        1 MOL      0.066355
     71 H31        -0.5990   -0.5320    7.2460 hc        1 MOL      0.066355
     72 H32         0.0970    1.5570    6.9130 hn        1 MOL      0.372180
     73 H33         1.1320    2.0620    5.5750 hn        1 MOL      0.372180
     74 N8         -1.8690    0.0730    3.5770 n         1 MOL     -0.251948
     75 C23        -2.8160    0.6340    2.6810 c3        1 MOL      0.068908
     76 C24        -2.2390    1.6940    1.7650 c         1 MOL      0.376210
     77 O12        -0.9980    1.9320    1.7450 o         1 MOL     -0.551546
     78 H34        -1.0540   -0.4030    3.2160 hn        1 MOL      0.179929
     79 H35        -3.7500    0.9300    3.1550 h1        1 MOL      0.077569
     80 H36        -3.0400   -0.1910    1.9960 h1        1 MOL      0.077569
     81 N9         -3.0580    2.3110    0.9520 n         1 MOL     -0.319744
     82 C25        -2.6360    3.2590   -0.1330 c3        1 MOL      0.142668
     83 C26        -1.8040    2.5400   -1.1290 c         1 MOL      0.211631
     84 O13        -2.0830    1.3810   -1.4830 o         1 MOL     -0.386842
     85 C27        -3.8850    4.0010   -0.6770 c3        1 MOL      0.013100
     86 C28        -4.2730    5.0690    0.2900 ca        1 MOL     -0.100544
     87 C29        -5.0940    4.6830    1.4610 ca        1 MOL     -0.066813
     88 C30        -4.1570    6.4750    0.0180 ca        1 MOL     -0.066813
     89 C31        -5.6870    5.6760    2.2240 ca        1 MOL     -0.320247
     90 C32        -4.6870    7.4580    0.8470 ca        1 MOL     -0.320247
     91 C33        -5.4850    7.0390    1.9350 ca        1 MOL      0.416343
     92 O14        -6.0320    7.9560    2.7890 oh        1 MOL     -0.567504
     93 H37        -4.0390    2.0850    0.8610 hn        1 MOL      0.280862
     94 H38        -1.9640    3.9980    0.2970 h1        1 MOL      0.045296
     95 H39        -4.7100    3.3170   -0.8700 hc        1 MOL      0.031094
     96 H40        -3.7670    4.4540   -1.6670 hc        1 MOL      0.031094
     97 H41        -5.4200    3.6760    1.6590 ha        1 MOL      0.103507
     98 H42        -3.5630    6.7270   -0.8470 ha        1 MOL      0.103507
     99 H43        -6.2850    5.3720    3.0760 ha        1 MOL      0.163729
    100 H44        -4.6830    8.5240    0.6620 ha        1 MOL      0.163729
    101 H45        -6.4320    7.5620    3.5730 ho        1 MOL      0.404153
    102 N10        -0.6380    3.1530   -1.4880 n         1 MOL     -0.315662
    103 C34         0.5060    2.4500   -2.1370 c3        1 MOL     -0.068840
    104 C35         1.8010    2.5440   -1.4200 c         1 MOL      0.835781
    105 O15         2.5570    1.5660   -1.2750 o         1 MOL     -0.676473
    106 C36         0.7450    2.9980   -3.5740 c3        1 MOL      0.219695
    107 C37        -0.6040    2.9340   -4.3620 c3        1 MOL      0.102062
    108 C38         1.8760    2.2420   -4.3660 c3        1 MOL     -0.493689
    109 C39        -0.4440    3.3420   -5.8480 c3        1 MOL     -0.316884
    110 H46        -0.4730    4.1010   -1.1910 hn        1 MOL      0.213985
    111 H47         0.2080    1.4040   -2.2320 h1        1 MOL      0.086076
    112 H48         0.9890    4.0590   -3.4920 hc        1 MOL     -0.072192
    113 H49        -1.2780    3.7070   -3.9740 hc        1 MOL      0.018076
    114 H50        -0.9380    1.9030   -4.2330 hc        1 MOL      0.018076
    115 H51         2.7550    2.3210   -3.7150 hc        1 MOL      0.133496
    116 H52         1.6140    1.2350   -4.6890 hc        1 MOL      0.133496
    117 H53         2.0740    2.7710   -5.2990 hc        1 MOL      0.133496
    118 H54         0.1720    2.6500   -6.4250 hc        1 MOL      0.075255
    119 H55        -1.4000    3.3050   -6.3750 hc        1 MOL      0.075255
    120 H56        -0.0520    4.3620   -5.8240 hc        1 MOL      0.075255
    121 N11         2.1340    3.6400   -0.8000 n         1 MOL     -0.543835
    122 C40         3.4040    3.9070    0.0530 c3        1 MOL     -0.057451
    123 C41         4.7280    3.5740   -0.6470 c         1 MOL      0.316021
    124 O16         5.7780    3.5810    0.0380 o         1 MOL     -0.513960
    125 C42         3.4290    5.4140    0.5360 c3        1 MOL      0.307574
    126 O17         2.1910    5.6500    0.9440 oh        1 MOL     -0.584288
    127 H57         1.5530    4.4530   -0.8970 hn        1 MOL      0.289577
    128 H58         3.3730    3.2970    0.9580 h1        1 MOL      0.132566
    129 H59         3.7410    6.0570   -0.2890 h1        1 MOL     -0.002674
    130 H60         4.1590    5.5650    1.3300 h1        1 MOL     -0.002674
    131 H61         2.1370    6.6070    1.0470 ho        1 MOL      0.394876
    132 N12         4.7770    3.3900   -1.9890 n         1 MOL     -0.134190
    133 C43         5.9980    3.0850   -2.8510 c3        1 MOL     -0.010619
    134 C44         6.9620    1.8940   -2.5530 c         1 MOL      0.525069
    135 O18         7.4470    1.3610   -3.5780 o         1 MOL     -0.485358
    136 C45         6.7270    4.4130   -3.0220 c3        1 MOL     -0.350513
    137 H62         3.8700    3.3930   -2.4210 hn        1 MOL      0.144880
    138 H63         5.5180    2.9660   -3.8220 h1        1 MOL      0.095315
    139 H64         7.1090    4.5950   -2.0140 hc        1 MOL      0.106653
    140 H65         7.5490    4.2480   -3.7170 hc        1 MOL      0.106653
    141 H66         6.1600    5.2950   -3.3120 hc        1 MOL      0.106653
    142 N13         7.1320    1.5660   -1.2230 n         1 MOL     -0.408079
    143 C46         7.5970    0.2100   -0.8230 c3        1 MOL     -0.063213
    144 C47         6.7110   -1.0430   -1.3230 c         1 MOL      0.377252
    145 O19         5.5330   -0.8090   -1.5250 o         1 MOL     -0.375386
    146 C48         7.7280    0.2130    0.6660 c3        1 MOL      0.031522
    147 H67         6.6790    2.0920   -0.4920 hn        1 MOL      0.328197
    148 H68         8.6140    0.1060   -1.2110 h1        1 MOL      0.063533
    149 H69         6.7390    0.2080    1.1260 hc        1 MOL      0.007733
    150 H70         8.3830   -0.5100    1.1510 hc        1 MOL      0.007733
    151 H71         8.1030    1.1930    0.9780 hc        1 MOL      0.007733
    152 N14         7.2780   -2.2570   -1.4300 n         1 MOL     -0.462563
    153 C49         6.6870   -3.5220   -1.8310 c3        1 MOL     -0.198075
    154 C50         6.4080   -3.5810   -3.3380 c         1 MOL      0.435405
    155 O20         6.1960   -4.5990   -3.9410 o         1 MOL     -0.521693
    156 C51         5.5410   -3.9960   -1.0150 c3        1 MOL      0.352288
    157 C52         5.9330   -4.1500    0.4520 c3        1 MOL     -0.169682
    158 C53         4.7580   -3.9530    1.3200 c         1 MOL      0.531196
    159 O21         4.5090   -2.7810    1.7950 o         1 MOL     -0.663927
    160 O22         3.9660   -4.9120    1.6810 o         1 MOL     -0.663927
    161 H72         8.2480   -2.3110   -1.1630 hn        1 MOL      0.348062
    162 H73         7.4320   -4.3140   -1.7390 h1        1 MOL      0.114666
    163 H74         5.1750   -4.9510   -1.3860 hc        1 MOL     -0.015360
    164 H75         4.7200   -3.2850   -1.0450 hc        1 MOL     -0.015360
    165 H76         6.7350   -3.4320    0.6010 hc        1 MOL      0.026871
    166 H77         6.3540   -5.1540    0.5320 hc        1 MOL      0.026871
    167 N15         6.3760   -2.4220   -3.9710 n         1 MOL     -0.206548
    168 C54         5.8350   -2.2680   -5.2820 c3        1 MOL     -0.115816
    169 H78         4.7730   -2.0380   -5.2120 h1        1 MOL      0.077642
    170 H79         6.3490   -1.4540   -5.7940 h1        1 MOL      0.077642
    171 H80         5.9700   -3.1930   -5.8430 h1        1 MOL      0.077642
    172 H81         6.5330   -1.6650   -3.3260 hn        1 MOL      0.192051
    173 Ca1         2.9540   -0.8670    2.6290 Ca        1 MOL      1.721368
    174 O23         4.1600   -1.9580    4.7690 oh        1 MOL     -0.809852
    175 H82         4.0110   -2.4330    5.5880 ho        1 MOL      0.399916
    176 H83         5.1130   -2.0040    4.6440 ho        1 MOL      0.399916
    177 O24         4.1730    0.1940    0.4750 oh        1 MOL     -0.809852
    178 H84         4.6230   -0.3760   -0.1470 ho        1 MOL      0.399916
    179 H85         3.7870    0.8880   -0.0680 ho        1 MOL      0.399916
    180 O25         1.7240    1.5710    2.0240 oh        1 MOL     -0.809852
    181 H86         0.7710    1.6290    1.8910 ho        1 MOL      0.399916
    182 H87         1.9300    2.3290    2.5820 ho        1 MOL      0.399916
    183 O26         1.9400   -3.3310    3.2010 oh        1 MOL     -0.809852
    184 H88         1.8640   -3.5310    4.1340 ho        1 MOL      0.399916
    185 H89         2.6350   -3.9070    2.8870 ho        1 MOL      0.399916
    186 O27         4.1870    0.9710    3.8950 oh        1 MOL     -0.809852
    187 H90         4.9240    0.9160    4.5100 ho        1 MOL      0.399916
    188 H91         3.7980    1.8290    4.0740 ho        1 MOL      0.399916
@<TRIPOS>BOND
     1    1    2 1   
     2    1    4 1   
     3    1    5 1   
     4    1    6 1   
     5    2    3 2   
     6    2    7 1   
     7    7    8 1   
     8    7   15 1   
     9    8    9 1   
    10    8   11 1   
    11    8   16 1   
    12    9   10 2   
    13    9   19 1   
    14   11   12 1   
    15   11   17 1   
    16   11   18 1   
    17   12   13 1   
    18   12   14 1   
    19   19   20 1   
    20   19   28 1   
    21   20   21 1   
    22   20   23 1   
    23   20   29 1   
    24   21   22 2   
    25   21   41 1   
    26   23   24 1   
    27   23   30 1   
    28   23   31 1   
    29   24   25 1   
    30   24   32 1   
    31   24   33 1   
    32   25   26 1   
    33   25   34 1   
    34   25   35 1   
    35   26   27 1   
    36   26   36 1   
    37   26   37 1   
    38   27   38 1   
    39   27   39 1   
    40   27   40 1   
    41   41   42 1   
    42   41   49 1   
    43   42   43 1   
    44   42   45 1   
    45   42   50 1   
    46   43   44 2   
    47   43   53 1   
    48   45   46 1   
    49   45   51 1   
    50   45   52 1   
    51   46   47 1   
    52   46   48 1   
    53   53   54 1   
    54   53   57 1   
    55   54   55 1   
    56   54   58 1   
    57   54   59 1   
    58   55   56 2   
    59   55   60 1   
    60   60   61 1   
    61   60   68 1   
    62   61   62 1   
    63   61   64 1   
    64   61   69 1   
    65   62   63 2   
    66   62   74 1   
    67   64   65 1   
    68   64   70 1   
    69   64   71 1   
    70   65   66 1   
    71   65   67 2   
    72   66   72 1   
    73   66   73 1   
    74   74   75 1   
    75   74   78 1   
    76   75   76 1   
    77   75   79 1   
    78   75   80 1   
    79   76   77 2   
    80   76   81 1   
    81   81   82 1   
    82   81   93 1   
    83   82   83 1   
    84   82   85 1   
    85   82   94 1   
    86   83   84 2   
    87   83  102 1   
    88   85   86 1   
    89   85   95 1   
    90   85   96 1   
    91   86   87 ar  
    92   86   88 ar  
    93   87   89 ar  
    94   87   97 1   
    95   88   90 ar  
    96   88   98 1   
    97   89   91 ar  
    98   89   99 1   
    99   90   91 ar  
   100   90  100 1   
   101   91   92 1   
   102   92  101 1   
   103  102  103 1   
   104  102  110 1   
   105  103  104 1   
   106  103  106 1   
   107  103  111 1   
   108  104  105 2   
   109  104  121 1   
   110  106  107 1   
   111  106  108 1   
   112  106  112 1   
   113  107  109 1   
   114  107  113 1   
   115  107  114 1   
   116  108  115 1   
   117  108  116 1   
   118  108  117 1   
   119  109  118 1   
   120  109  119 1   
   121  109  120 1   
   122  121  122 1   
   123  121  127 1   
   124  122  123 1   
   125  122  125 1   
   126  122  128 1   
   127  123  124 2   
   128  123  132 1   
   129  125  126 1   
   130  125  129 1   
   131  125  130 1   
   132  126  131 1   
   133  132  133 1   
   134  132  137 1   
   135  133  134 1   
   136  133  136 1   
   137  133  138 1   
   138  134  135 2   
   139  134  142 1   
   140  136  139 1   
   141  136  140 1   
   142  136  141 1   
   143  142  143 1   
   144  142  147 1   
   145  143  144 1   
   146  143  146 1   
   147  143  148 1   
   148  144  145 2   
   149  144  152 1   
   150  146  149 1   
   151  146  150 1   
   152  146  151 1   
   153  152  153 1   
   154  152  161 1   
   155  153  154 1   
   156  153  156 1   
   157  153  162 1   
   158  154  155 2   
   159  154  167 1   
   160  156  157 1   
   161  156  163 1   
   162  156  164 1   
   163  157  158 1   
   164  157  165 1   
   165  157  166 1   
   166  158  159 1   
   167  158  160 1   
   168  167  168 1   
   169  167  172 1   
   170  168  169 1   
   171  168  170 1   
   172  168  171 1   
   173  174  175 1   
   174  174  176 1   
   175  177  178 1   
   176  177  179 1   
   177  180  181 1   
   178  180  182 1   
   179  183  184 1   
   180  183  185 1   
   181  186  187 1   
   182  186  188 1   
@<TRIPOS>SUBSTRUCTURE
     1 MOL         1 TEMP              0 ****  ****    0 ROOT
