@<TRIPOS>MOLECULE
MOL
  192   187     1     0     0
SMALL
resp


@<TRIPOS>ATOM
      1 C1         -1.3850    8.0710    1.4740 c3        1 MOL     -0.451015
      2 C2         -1.7390    6.5490    1.4170 c         1 MOL      0.638805
      3 O1         -2.0540    5.9630    2.4670 o         1 MOL     -0.562877
      4 H1         -0.3290    8.1900    1.7140 hc        1 MOL      0.122439
      5 H2         -1.5910    8.5290    0.5060 hc        1 MOL      0.122439
      6 H3         -1.9880    8.5570    2.2410 hc        1 MOL      0.122439
      7 N1         -1.8110    5.9180    0.2530 n         1 MOL     -0.329287
      8 C3         -2.0370    4.4950   -0.0330 c3        1 MOL     -0.003909
      9 C4         -0.8190    3.6980   -0.4160 c         1 MOL      0.473651
     10 O2         -0.7830    2.4850   -0.7960 o         1 MOL     -0.522989
     11 C5         -3.1030    4.2710   -1.2130 c3        1 MOL     -0.284239
     12 C6         -2.8810    4.9770   -2.5710 c         1 MOL      0.767159
     13 O3         -2.8460    6.2590   -2.6450 o         1 MOL     -0.719578
     14 O4         -2.7310    4.3350   -3.6580 o         1 MOL     -0.719578
     15 H4         -1.9300    6.6300   -0.4460 hn        1 MOL      0.204580
     16 H5         -2.2730    4.0940    0.9550 h1        1 MOL      0.137125
     17 H6         -4.0740    4.6640   -0.8800 hc        1 MOL      0.090217
     18 H7         -3.1840    3.2150   -1.4420 hc        1 MOL      0.090217
     19 N2          0.4040    4.3360   -0.2250 n         1 MOL     -0.432560
     20 C7          1.6860    3.6540   -0.5620 c3        1 MOL      0.427306
     21 C8          2.5430    3.3140    0.7370 c         1 MOL      0.392772
     22 O5          2.7140    4.1490    1.6370 o         1 MOL     -0.556528
     23 C9          2.5400    4.6320   -1.4110 c3        1 MOL      0.005015
     24 C10         2.2750    4.8210   -2.8990 c3        1 MOL     -0.075050
     25 C11         0.7770    5.0580   -3.1760 c3        1 MOL      0.306215
     26 C12         0.6270    5.3570   -4.6940 c3        1 MOL     -0.039759
     27 N3         -0.7400    5.8330   -4.9010 n4        1 MOL     -0.205653
     28 H8          0.3620    5.3060    0.0600 hn        1 MOL      0.189136
     29 H9          1.5380    2.7330   -1.1260 h1        1 MOL     -0.004928
     30 H10         3.5110    4.1550   -1.5430 hc        1 MOL     -0.008843
     31 H11         2.7010    5.5590   -0.8660 hc        1 MOL     -0.008843
     32 H12         2.5080    3.9150   -3.4630 hc        1 MOL      0.002311
     33 H13         2.7910    5.6680   -3.3580 hc        1 MOL      0.002311
     34 H14         0.5120    5.9490   -2.6150 hc        1 MOL     -0.077426
     35 H15         0.2190    4.2020   -2.7920 hc        1 MOL     -0.077426
     36 H16         0.8050    4.4690   -5.2850 hx        1 MOL      0.061735
     37 H17         1.2760    6.1470   -5.0800 hx        1 MOL      0.061735
     38 H18        -0.9220    5.9190   -5.8920 hn        1 MOL      0.260950
     39 H19        -1.3380    5.1280   -4.4870 hn        1 MOL      0.260950
     40 H20        -0.9920    6.6840   -4.4140 hn        1 MOL      0.260950
     41 N4          3.2900    2.1690    0.7840 n         1 MOL     -0.443871
     42 C13         3.1410    0.9280    0.0620 c3        1 MOL      0.408957
     43 C14         3.5110    1.0950   -1.4530 c         1 MOL      0.490925
     44 O6          2.7810    0.6270   -2.3150 o         1 MOL     -0.579151
     45 C15         1.8150    0.3110    0.3730 c3        1 MOL     -0.529109
     46 C16         1.5520   -0.1360    1.8190 c         1 MOL      0.831679
     47 O7          2.4810   -0.0950    2.7300 o         1 MOL     -0.728756
     48 O8          0.3690   -0.5270    2.0920 o         1 MOL     -0.728756
     49 H21         4.0320    2.1910    1.4630 hn        1 MOL      0.267189
     50 H22         3.9100    0.3260    0.5390 h1        1 MOL     -0.041298
     51 H23         1.9690   -0.6470   -0.1230 hc        1 MOL      0.141933
     52 H24         0.9220    0.8810    0.0980 hc        1 MOL      0.141933
     53 N5          4.6450    1.7140   -1.7760 n         1 MOL     -0.396800
     54 C17         5.7590    2.1450   -0.9270 c3        1 MOL      0.044470
     55 C18         7.1400    2.2910   -1.6160 c         1 MOL      0.526384
     56 O9          7.1850    2.5660   -2.7850 o         1 MOL     -0.548438
     57 H25         4.7400    1.7410   -2.7800 hn        1 MOL      0.270290
     58 H26         5.8650    1.6200    0.0230 h1        1 MOL      0.014946
     59 H27         5.5380    3.1840   -0.6810 h1        1 MOL      0.014946
     60 N6          8.2550    2.2020   -0.8830 n         1 MOL     -0.338496
     61 C19         8.4070    1.9390    0.5900 c3        1 MOL      0.009209
     62 C20         7.9900    0.5730    1.1370 c         1 MOL      0.539670
     63 O10         7.9800    0.2720    2.3130 o         1 MOL     -0.524500
     64 C21         9.7530    2.4940    1.2200 c3        1 MOL     -0.190862
     65 C22        11.1130    2.1710    0.4980 c         1 MOL      0.666620
     66 O11        11.5190    2.7960   -0.4960 o         1 MOL     -0.621714
     67 O12        11.6330    1.0880    0.7960 o         1 MOL     -0.621714
     68 H28         9.0900    2.4810   -1.3750 hn        1 MOL      0.260353
     69 H29         7.6950    2.6340    1.0410 h1        1 MOL      0.043702
     70 H30         9.8810    2.1650    2.2520 hc        1 MOL      0.046645
     71 H31         9.7050    3.5870    1.1560 hc        1 MOL      0.046645
     72 N7          7.7070   -0.3590    0.1840 n         1 MOL     -0.286946
     73 C23         7.3580   -1.7910    0.3610 c3        1 MOL     -0.058634
     74 C24         6.2230   -2.2120   -0.5420 c         1 MOL      0.653983
     75 O13         5.6160   -1.4930   -1.3270 o         1 MOL     -0.505448
     76 H32         7.5840   -0.0660   -0.7730 hn        1 MOL      0.165175
     77 H33         7.1000   -1.9690    1.4040 h1        1 MOL      0.069434
     78 H34         8.1620   -2.4760    0.0810 h1        1 MOL      0.069434
     79 N8          5.9300   -3.4910   -0.3660 n         1 MOL     -0.482801
     80 C25         4.9900   -4.2760   -1.1870 c3        1 MOL     -0.374827
     81 C26         3.5600   -3.8770   -1.0080 c         1 MOL      0.772043
     82 O14         3.0950   -3.5370    0.0770 o         1 MOL     -0.568571
     83 C27         4.9670   -5.7590   -0.8360 c3        1 MOL      0.597350
     84 C28         4.4810   -6.4220    0.4870 c3        1 MOL     -0.485256
     85 O15         6.2990   -6.1060   -0.7480 oh        1 MOL     -0.631673
     86 H35         6.3120   -3.9220    0.4640 hn        1 MOL      0.273001
     87 H36         5.2850   -4.1140   -2.2240 h1        1 MOL      0.173600
     88 H37         4.5290   -6.2960   -1.6670 h1        1 MOL      0.008961
     89 H38         6.5120   -5.6050    0.0420 ho        1 MOL      0.365110
     90 H39         4.7660   -5.8440    1.3680 hc        1 MOL      0.125397
     91 H40         3.4010   -6.3990    0.3410 hc        1 MOL      0.125397
     92 H41         4.7040   -7.4900    0.4970 hc        1 MOL      0.125397
     93 N9          2.8160   -3.9860   -2.0930 n         1 MOL     -0.641938
     94 C29         1.4200   -3.6500   -2.0860 c3        1 MOL      0.056252
     95 C30         0.5300   -4.7570   -1.5090 c         1 MOL      0.419645
     96 O16         0.8100   -5.9660   -1.4880 o         1 MOL     -0.532276
     97 C31         0.9520   -3.1430   -3.5000 c3        1 MOL      0.158366
     98 C32        -0.3200   -2.2840   -3.5550 c3        1 MOL      0.060204
     99 C33         0.7260   -4.3750   -4.3930 c3        1 MOL     -0.121568
    100 C34        -0.7930   -1.7950   -4.9480 c3        1 MOL     -0.097482
    101 H42         3.2520   -4.1620   -2.9860 hn        1 MOL      0.315346
    102 H43         1.3050   -2.8050   -1.4110 h1        1 MOL      0.046583
    103 H44         1.7600   -2.5830   -3.9750 hc        1 MOL      0.026646
    104 H45        -0.0820   -1.3520   -3.0420 hc        1 MOL     -0.023573
    105 H46        -1.1350   -2.8110   -3.0640 hc        1 MOL     -0.023573
    106 H47         0.7170   -4.0800   -5.4390 hc        1 MOL      0.017035
    107 H48         1.4590   -5.1770   -4.2840 hc        1 MOL      0.017035
    108 H49        -0.2610   -4.7480   -4.1110 hc        1 MOL      0.017035
    109 H50         0.0680   -1.4140   -5.5090 hc        1 MOL      0.023865
    110 H51        -1.2040   -2.5750   -5.5880 hc        1 MOL      0.023865
    111 H52        -1.5200   -0.9920   -4.7940 hc        1 MOL      0.023865
    112 N10        -0.6290   -4.3890   -1.0230 n         1 MOL     -0.041956
    113 C35        -1.7790   -5.2440   -0.6360 c3        1 MOL     -0.203665
    114 C36        -3.1750   -4.6120   -0.9740 c         1 MOL      0.475124
    115 O17        -4.1330   -5.3820   -1.0900 o         1 MOL     -0.529650
    116 C37        -1.7720   -5.5260    0.9040 c3        1 MOL      0.234075
    117 C38        -1.7790   -4.4890    2.0150 c3        1 MOL     -0.140062
    118 O18        -0.5510   -6.1190    1.2190 oh        1 MOL     -0.585568
    119 H53        -0.7480   -3.3850   -0.9640 hn        1 MOL      0.130355
    120 H54        -1.6660   -6.1780   -1.1790 h1        1 MOL      0.156242
    121 H55        -2.5980   -6.1960    1.1460 h1        1 MOL      0.038499
    122 H56        -0.8080   -6.9940    1.5380 ho        1 MOL      0.373945
    123 H57        -1.0040   -3.7410    1.8600 hc        1 MOL      0.051400
    124 H58        -2.7500   -3.9970    2.0840 hc        1 MOL      0.051400
    125 H59        -1.5930   -4.9440    2.9870 hc        1 MOL      0.051400
    126 N11        -3.3300   -3.3230   -1.2230 n         1 MOL     -0.401727
    127 C39        -4.6130   -2.6640   -1.6020 c3        1 MOL     -0.003837
    128 C40        -5.5220   -2.5520   -0.3010 c         1 MOL      0.550399
    129 O19        -5.2680   -3.1090    0.8110 o         1 MOL     -0.486552
    130 C41        -5.3320   -3.1630   -2.8950 c3        1 MOL      0.443601
    131 C42        -4.4610   -3.3490   -4.0820 c3        1 MOL     -0.463483
    132 O20        -6.3590   -2.2490   -3.1210 oh        1 MOL     -0.654652
    133 H60        -2.5500   -2.7500   -0.9230 hn        1 MOL      0.285061
    134 H61        -4.3630   -1.6270   -1.8280 h1        1 MOL      0.107018
    135 H62        -5.7890   -4.1380   -2.7300 h1        1 MOL      0.000186
    136 H63        -6.8410   -2.5690   -3.8900 ho        1 MOL      0.377176
    137 H64        -3.9020   -2.4510   -4.3390 hc        1 MOL      0.119585
    138 H65        -3.7440   -4.1340   -3.8240 hc        1 MOL      0.119585
    139 H66        -5.1260   -3.7290   -4.8550 hc        1 MOL      0.119585
    140 N12        -6.6260   -1.7720   -0.3390 n         1 MOL     -0.478741
    141 C43        -7.7120   -1.7380    0.6580 c3        1 MOL     -0.037660
    142 C44        -7.4050   -0.8360    1.7790 c         1 MOL      0.501570
    143 O21        -8.2860   -0.4800    2.5510 o         1 MOL     -0.553586
    144 C45        -9.0460   -1.3580    0.0100 c3        1 MOL     -0.041517
    145 C46        -8.9030   -0.1030   -0.8400 c3        1 MOL      0.158069
    146 C47       -10.2120    0.4130   -1.2770 c3        1 MOL     -0.169974
    147 C48       -10.1060    1.2980   -2.4650 c3        1 MOL     -0.108259
    148 N13        -9.9220    0.4550   -3.6680 n4        1 MOL     -0.251650
    149 H67        -6.7050   -1.2530   -1.1940 hn        1 MOL      0.208900
    150 H68        -7.6630   -2.7390    1.0660 h1        1 MOL      0.148247
    151 H69        -9.8120   -1.2480    0.7710 hc        1 MOL      0.022684
    152 H70        -9.3110   -2.1960   -0.6480 hc        1 MOL      0.022684
    153 H71        -8.2770   -0.2910   -1.7200 hc        1 MOL      0.020486
    154 H72        -8.3920    0.6730   -0.2690 hc        1 MOL      0.020486
    155 H73       -10.5750    1.0000   -0.4310 hc        1 MOL      0.085114
    156 H74       -10.8670   -0.4230   -1.5340 hc        1 MOL      0.085114
    157 H75        -9.2650    1.9610   -2.2890 hx        1 MOL      0.136680
    158 H76       -11.0220    1.8590   -2.6500 hx        1 MOL      0.136680
    159 H77        -9.0630   -0.0680   -3.6250 hn        1 MOL      0.241673
    160 H78       -10.6850   -0.2020   -3.7340 hn        1 MOL      0.241673
    161 H79        -9.9520    1.0610   -4.4760 hn        1 MOL      0.241673
    162 N14        -6.2220   -0.1590    1.8600 n         1 MOL     -0.232599
    163 C49        -5.6940    0.7780    2.8910 c3        1 MOL     -0.359047
    164 C50        -6.2500    2.2960    2.7130 c         1 MOL      0.554465
    165 O22        -5.9140    2.9230    1.7120 o         1 MOL     -0.525429
    166 C51        -4.1220    0.7450    3.0940 c3        1 MOL     -0.014821
    167 C52        -3.6010   -0.5710    3.6400 c3        1 MOL      0.276930
    168 C53        -2.1600   -0.6590    4.2280 c         1 MOL      0.543503
    169 O23        -1.5140   -1.7280    4.3570 o         1 MOL     -0.763493
    170 O24        -1.6660    0.4040    4.6650 o         1 MOL     -0.763493
    171 H80        -5.6000   -0.3460    1.0910 hn        1 MOL      0.229946
    172 H81        -6.0270    0.3920    3.8570 h1        1 MOL      0.145501
    173 H82        -3.9680    1.5930    3.7580 hc        1 MOL      0.052707
    174 H83        -3.7470    0.9880    2.0970 hc        1 MOL      0.052707
    175 H84        -3.6090   -1.2850    2.8160 hc        1 MOL     -0.056737
    176 H85        -4.3510   -1.0030    4.3000 hc        1 MOL     -0.056737
    177 N15        -7.1690    2.7590    3.5910 n         1 MOL     -0.274063
    178 C54        -7.8530    4.0740    3.5120 c3        1 MOL     -0.082956
    179 H86        -8.8300    4.0040    3.9900 h1        1 MOL      0.072378
    180 H87        -7.2540    4.8280    4.0230 h1        1 MOL      0.072378
    181 H88        -7.9790    4.3560    2.4670 h1        1 MOL      0.072378
    182 H89        -7.2600    2.1750    4.4140 hn        1 MOL      0.236000
    183 Ca1         0.8320   -0.7900    4.8560 Ca        1 MOL      1.796028
    184 O25         1.4460    1.9120    4.7020 oh        1 MOL     -0.923832
    185 H90         1.1570    2.6030    4.1080 ho        1 MOL      0.450611
    186 H91         2.0410    2.3510    5.3090 ho        1 MOL      0.450611
    187 O26         0.9810   -3.3090    4.0940 oh        1 MOL     -0.923832
    188 H92         0.6610   -4.0090    4.6500 ho        1 MOL      0.450611
    189 H93         1.2980   -3.7500    3.3070 ho        1 MOL      0.450611
    190 O27         3.1100   -1.8140    5.6100 oh        1 MOL     -0.923832
    191 H94         3.1620   -2.6740    6.0130 ho        1 MOL      0.450611
    192 H95         4.0210   -1.5950    5.3960 ho        1 MOL      0.450611
@<TRIPOS>BOND
     1    1    2 1   
     2    1    4 1   
     3    1    5 1   
     4    1    6 1   
     5    2    3 2   
     6    2    7 1   
     7    7    8 1   
     8    7   15 1   
     9    8    9 1   
    10    8   11 1   
    11    8   16 1   
    12    9   10 2   
    13    9   19 1   
    14   11   12 1   
    15   11   17 1   
    16   11   18 1   
    17   12   13 1   
    18   12   14 1   
    19   19   20 1   
    20   19   28 1   
    21   20   21 1   
    22   20   23 1   
    23   20   29 1   
    24   21   22 2   
    25   21   41 1   
    26   23   24 1   
    27   23   30 1   
    28   23   31 1   
    29   24   25 1   
    30   24   32 1   
    31   24   33 1   
    32   25   26 1   
    33   25   34 1   
    34   25   35 1   
    35   26   27 1   
    36   26   36 1   
    37   26   37 1   
    38   27   38 1   
    39   27   39 1   
    40   27   40 1   
    41   41   42 1   
    42   41   49 1   
    43   42   43 1   
    44   42   45 1   
    45   42   50 1   
    46   43   44 2   
    47   43   53 1   
    48   45   46 1   
    49   45   51 1   
    50   45   52 1   
    51   46   47 1   
    52   46   48 1   
    53   53   54 1   
    54   53   57 1   
    55   54   55 1   
    56   54   58 1   
    57   54   59 1   
    58   55   56 2   
    59   55   60 1   
    60   60   61 1   
    61   60   68 1   
    62   61   62 1   
    63   61   64 1   
    64   61   69 1   
    65   62   63 2   
    66   62   72 1   
    67   64   65 1   
    68   64   70 1   
    69   64   71 1   
    70   65   66 1   
    71   65   67 1   
    72   72   73 1   
    73   72   76 1   
    74   73   74 1   
    75   73   77 1   
    76   73   78 1   
    77   74   75 2   
    78   74   79 1   
    79   79   80 1   
    80   79   86 1   
    81   80   81 1   
    82   80   83 1   
    83   80   87 1   
    84   81   82 2   
    85   81   93 1   
    86   83   84 1   
    87   83   85 1   
    88   83   88 1   
    89   84   90 1   
    90   84   91 1   
    91   84   92 1   
    92   85   89 1   
    93   93   94 1   
    94   93  101 1   
    95   94   95 1   
    96   94   97 1   
    97   94  102 1   
    98   95   96 2   
    99   95  112 1   
   100   97   98 1   
   101   97   99 1   
   102   97  103 1   
   103   98  100 1   
   104   98  104 1   
   105   98  105 1   
   106   99  106 1   
   107   99  107 1   
   108   99  108 1   
   109  100  109 1   
   110  100  110 1   
   111  100  111 1   
   112  112  113 1   
   113  112  119 1   
   114  113  114 1   
   115  113  116 1   
   116  113  120 1   
   117  114  115 2   
   118  114  126 1   
   119  116  117 1   
   120  116  118 1   
   121  116  121 1   
   122  117  123 1   
   123  117  124 1   
   124  117  125 1   
   125  118  122 1   
   126  126  127 1   
   127  126  133 1   
   128  127  128 1   
   129  127  130 1   
   130  127  134 1   
   131  128  129 2   
   132  128  140 1   
   133  130  131 1   
   134  130  132 1   
   135  130  135 1   
   136  131  137 1   
   137  131  138 1   
   138  131  139 1   
   139  132  136 1   
   140  140  141 1   
   141  140  149 1   
   142  141  142 1   
   143  141  144 1   
   144  141  150 1   
   145  142  143 2   
   146  142  162 1   
   147  144  145 1   
   148  144  151 1   
   149  144  152 1   
   150  145  146 1   
   151  145  153 1   
   152  145  154 1   
   153  146  147 1   
   154  146  155 1   
   155  146  156 1   
   156  147  148 1   
   157  147  157 1   
   158  147  158 1   
   159  148  159 1   
   160  148  160 1   
   161  148  161 1   
   162  162  163 1   
   163  162  171 1   
   164  163  164 1   
   165  163  166 1   
   166  163  172 1   
   167  164  165 2   
   168  164  177 1   
   169  166  167 1   
   170  166  173 1   
   171  166  174 1   
   172  167  168 1   
   173  167  175 1   
   174  167  176 1   
   175  168  169 1   
   176  168  170 1   
   177  177  178 1   
   178  177  182 1   
   179  178  179 1   
   180  178  180 1   
   181  178  181 1   
   182  184  185 1   
   183  184  186 1   
   184  187  188 1   
   185  187  189 1   
   186  190  191 1   
   187  190  192 1   
@<TRIPOS>SUBSTRUCTURE
     1 MOL         1 TEMP              0 ****  ****    0 ROOT
