@<TRIPOS>MOLECULE
MOL
  192   187     1     0     0
SMALL
resp


@<TRIPOS>ATOM
      1 C1          9.3770    0.8640    1.6760 c3        1 MOL     -0.447773
      2 C2          8.1320    0.7780    0.7760 c         1 MOL      0.667390
      3 O1          7.3640    1.7830    0.6910 o         1 MOL     -0.554373
      4 H1          9.5740   -0.1140    2.1150 hc        1 MOL      0.116125
      5 H2         10.2350    1.1740    1.0800 hc        1 MOL      0.116125
      6 H3          9.2030    1.5900    2.4700 hc        1 MOL      0.116125
      7 N1          8.0180   -0.3500    0.1120 n         1 MOL     -0.828075
      8 C3          7.2290   -0.5350   -1.1210 c3        1 MOL      0.185624
      9 C4          6.7130   -1.9900   -1.1910 c         1 MOL      0.321794
     10 O2          6.3770   -2.5250   -2.2710 o         1 MOL     -0.465205
     11 C5          8.1390   -0.4130   -2.3660 c3        1 MOL     -0.126360
     12 C6          9.0130    0.8960   -2.4310 c         1 MOL      0.804688
     13 O3          8.6260    1.7030   -3.2820 o         1 MOL     -0.640897
     14 O4         10.1620    1.0080   -1.9230 o         1 MOL     -0.640897
     15 H4          8.6270   -1.1320    0.2920 hn        1 MOL      0.395963
     16 H5          6.3940    0.1560   -1.2420 h1        1 MOL      0.144547
     17 H6          7.4760   -0.4500   -3.2340 hc        1 MOL      0.019272
     18 H7          8.8290   -1.2500   -2.4740 hc        1 MOL      0.019272
     19 N2          6.3280   -2.5810   -0.0720 n         1 MOL     -0.097943
     20 C7          5.7810   -3.9530   -0.0200 c3        1 MOL      0.006879
     21 C8          4.3270   -3.9690   -0.6000 c         1 MOL      0.558050
     22 O5          4.0160   -4.8870   -1.3680 o         1 MOL     -0.552204
     23 C9          6.0710   -4.5120    1.3620 c3        1 MOL     -0.144615
     24 C10         7.6190   -4.6770    1.6390 c3        1 MOL     -0.119979
     25 C11         7.9050   -4.9650    3.1300 c3        1 MOL     -0.049742
     26 C12         9.3720   -5.4610    3.2920 c3        1 MOL      0.213212
     27 N3          9.6370   -5.9190    4.6300 n4        1 MOL     -0.268057
     28 H8          6.4410   -2.0840    0.7980 hn        1 MOL      0.176805
     29 H9          6.4480   -4.4750   -0.7060 h1        1 MOL      0.059681
     30 H10         5.5900   -5.4890    1.3880 hc        1 MOL      0.077139
     31 H11         5.6060   -3.7900    2.0410 hc        1 MOL      0.077139
     32 H12         8.3000   -3.8970    1.2880 hc        1 MOL      0.062007
     33 H13         7.9570   -5.5850    1.1460 hc        1 MOL      0.062007
     34 H14         7.2420   -5.7550    3.4910 hc        1 MOL      0.014916
     35 H15         7.7840   -4.0110    3.6350 hc        1 MOL      0.014916
     36 H16         9.9440   -4.5570    3.0570 hx        1 MOL      0.016915
     37 H17         9.6820   -6.1700    2.5270 hx        1 MOL      0.016915
     38 H18         9.2230   -5.3160    5.3200 hn        1 MOL      0.245268
     39 H19         9.2070   -6.8300    4.7280 hn        1 MOL      0.245268
     40 H20        10.6370   -5.9980    4.7260 hn        1 MOL      0.245268
     41 N4          3.3140   -3.2090   -0.2170 n         1 MOL     -0.422426
     42 C13         3.4620   -2.0580    0.6260 c3        1 MOL      0.068417
     43 C14         3.8520   -0.7620   -0.1830 c         1 MOL      0.071617
     44 O6          3.9040   -0.7110   -1.4240 o         1 MOL     -0.370979
     45 C15         2.1750   -1.8320    1.4130 c3        1 MOL     -0.250640
     46 C16         0.8260   -2.0900    0.6930 c         1 MOL      0.693542
     47 O7          0.5050   -1.5960   -0.4270 o         1 MOL     -0.666732
     48 O8          0.0710   -2.9140    1.2690 o         1 MOL     -0.666732
     49 H21         2.4550   -3.3040   -0.7290 hn        1 MOL      0.358106
     50 H22         4.2380   -2.2860    1.3600 h1        1 MOL      0.103488
     51 H23         2.1580   -0.8410    1.8820 hc        1 MOL      0.055947
     52 H24         2.3000   -2.5510    2.2300 hc        1 MOL      0.055947
     53 N5          3.9220    0.3870    0.5470 n         1 MOL     -0.216927
     54 C17         4.1070    1.7560    0.1320 c3        1 MOL     -0.087294
     55 C18         2.9330    2.4020   -0.6070 c         1 MOL      0.687573
     56 O9          1.8300    1.8320   -0.8310 o         1 MOL     -0.576690
     57 H25         3.9800    0.2530    1.5380 hn        1 MOL      0.230343
     58 H26         4.9930    1.8530   -0.4990 h1        1 MOL      0.104425
     59 H27         4.2770    2.3770    1.0180 h1        1 MOL      0.104425
     60 N6          3.1960    3.6560   -1.1360 n         1 MOL     -0.719253
     61 C19         2.2450    4.4530   -1.9940 c3        1 MOL      0.556789
     62 C20         2.7950    5.9020   -1.9910 c         1 MOL      0.378448
     63 O10         4.0030    6.1550   -1.9770 o         1 MOL     -0.503610
     64 C21         2.0810    3.9540   -3.4700 c3        1 MOL     -0.361573
     65 C22         1.4730    2.6380   -3.6360 c         1 MOL      0.832964
     66 O11         0.3630    2.4830   -3.1240 o         1 MOL     -0.710344
     67 O12         2.0270    1.7480   -4.3110 o         1 MOL     -0.710344
     68 H28         4.0610    4.1400   -0.9360 hn        1 MOL      0.332541
     69 H29         1.2680    4.4480   -1.5250 h1        1 MOL     -0.083997
     70 H30         3.0890    3.9920   -3.8830 hc        1 MOL      0.077271
     71 H31         1.4660    4.6490   -4.0290 hc        1 MOL      0.077271
     72 N7          1.9110    6.9100   -1.9180 n         1 MOL     -0.400906
     73 C23         0.4180    6.9270   -2.0340 c3        1 MOL     -0.218645
     74 C24        -0.2430    6.3690   -0.7190 c         1 MOL      0.686491
     75 O13         0.0640    6.6690    0.4110 o         1 MOL     -0.533092
     76 H32         2.2060    7.8740   -1.9010 hn        1 MOL      0.314384
     77 H33         0.1900    6.3450   -2.9210 h1        1 MOL      0.116361
     78 H34         0.2550    7.9930   -2.1830 h1        1 MOL      0.116361
     79 N8         -1.3090    5.5980   -0.9460 n         1 MOL     -0.639963
     80 C25        -2.0810    4.8610    0.1070 c3        1 MOL     -0.045632
     81 C26        -1.3150    3.6610    0.6470 c         1 MOL      1.022873
     82 O14        -0.8150    2.7910   -0.1030 o         1 MOL     -0.831312
     83 C27        -3.3850    4.4350   -0.5020 c3        1 MOL      0.632069
     84 C28        -4.2410    5.5930   -0.9730 c3        1 MOL     -0.447469
     85 O15        -3.9950    3.7850    0.5500 oh        1 MOL     -0.763888
     86 H35        -1.6420    5.4870   -1.8950 hn        1 MOL      0.286592
     87 H36        -2.1870    5.5750    0.9270 h1        1 MOL      0.084586
     88 H37        -3.2600    3.6850   -1.2780 h1        1 MOL     -0.051800
     89 H38        -4.8350    3.3920    0.3090 ho        1 MOL      0.392673
     90 H39        -4.1160    5.7180   -2.0550 hc        1 MOL      0.111684
     91 H40        -5.2870    5.3530   -0.8300 hc        1 MOL      0.111684
     92 H41        -4.1280    6.4690   -0.3440 hc        1 MOL      0.111684
     93 N9         -1.2500    3.5750    1.9980 n         1 MOL     -0.750894
     94 C29        -0.7340    2.4940    2.7750 c3        1 MOL      0.197947
     95 C30        -1.2410    1.0760    2.3980 c         1 MOL      0.508644
     96 O16        -0.7510    0.4970    1.4210 o         1 MOL     -0.583314
     97 C31         0.7860    2.5800    2.7130 c3        1 MOL      0.140691
     98 C32         1.4600    3.9920    2.9820 c3        1 MOL     -0.014847
     99 C33         1.4290    1.6540    3.7600 c3        1 MOL     -0.566057
    100 C34         0.9720    4.7920    4.2080 c3        1 MOL     -0.143906
    101 H42        -1.7630    4.2530    2.5500 hn        1 MOL      0.321168
    102 H43        -1.0880    2.6620    3.7850 h1        1 MOL      0.058827
    103 H44         1.1850    2.2440    1.7640 hc        1 MOL      0.034990
    104 H45         1.4340    4.6700    2.1240 hc        1 MOL      0.033878
    105 H46         2.5400    3.8880    2.9830 hc        1 MOL      0.033878
    106 H47         1.3140    2.0250    4.7800 hc        1 MOL      0.133919
    107 H48         1.0500    0.6390    3.8710 hc        1 MOL      0.133919
    108 H49         2.4810    1.4500    3.5290 hc        1 MOL      0.133919
    109 H50        -0.0340    5.1450    4.0020 hc        1 MOL      0.034897
    110 H51         0.9340    4.1630    5.0950 hc        1 MOL      0.034897
    111 H52         1.5690    5.6930    4.3740 hc        1 MOL      0.034897
    112 N10        -2.0130    0.4400    3.2600 n         1 MOL     -0.397577
    113 C35        -2.4230   -0.9840    3.0430 c3        1 MOL     -0.033451
    114 C36        -3.9070   -1.2310    3.2600 c         1 MOL      0.354657
    115 O17        -4.4670   -2.2840    3.4840 o         1 MOL     -0.558543
    116 C37        -1.5920   -1.8690    4.0000 c3        1 MOL      0.432009
    117 C38        -1.8020   -1.4870    5.4540 c3        1 MOL     -0.195342
    118 O18        -0.2420   -1.9160    3.8230 oh        1 MOL     -0.617818
    119 H53        -2.1490    0.8650    4.1580 hn        1 MOL      0.232916
    120 H54        -2.2360   -1.3440    2.0270 h1        1 MOL      0.107916
    121 H55        -1.9720   -2.8930    3.9260 h1        1 MOL     -0.003646
    122 H56        -0.2110   -2.3030    2.9430 ho        1 MOL      0.365161
    123 H57        -1.2290   -0.6130    5.7640 hc        1 MOL      0.043828
    124 H58        -2.8150   -1.3180    5.8210 hc        1 MOL      0.043828
    125 H59        -1.5840   -2.2980    6.1400 hc        1 MOL      0.043828
    126 N11        -4.6510   -0.2340    2.8800 n         1 MOL     -0.004069
    127 C39        -6.0820    0.0820    3.0530 c3        1 MOL     -0.124917
    128 C40        -6.7410   -0.3430    1.7080 c         1 MOL      0.578105
    129 O19        -7.1860    0.4840    0.9350 o         1 MOL     -0.516356
    130 C41        -6.1900    1.6000    3.3680 c3        1 MOL      0.270032
    131 C42        -5.6290    1.8550    4.7260 c3        1 MOL     -0.289030
    132 O20        -5.5170    2.4260    2.5090 oh        1 MOL     -0.629324
    133 H60        -4.0680    0.5610    2.6550 hn        1 MOL      0.144469
    134 H61        -6.5030   -0.4870    3.8810 h1        1 MOL      0.100874
    135 H62        -7.2330    1.9110    3.2640 h1        1 MOL      0.024116
    136 H63        -5.8830    3.3070    2.6100 ho        1 MOL      0.444910
    137 H64        -4.5420    1.8770    4.6950 hc        1 MOL      0.068722
    138 H65        -5.9620    2.8460    5.0410 hc        1 MOL      0.068722
    139 H66        -5.8990    1.0880    5.4520 hc        1 MOL      0.068722
    140 N12        -6.6560   -1.6510    1.4310 n         1 MOL     -0.761676
    141 C43        -6.7140   -2.2870    0.0790 c3        1 MOL      0.300011
    142 C44        -5.4240   -1.9680   -0.7720 c         1 MOL      0.628308
    143 O21        -4.8460   -0.9220   -0.6570 o         1 MOL     -0.533795
    144 C45        -7.9720   -1.9650   -0.7170 c3        1 MOL     -0.067394
    145 C46        -9.2800   -1.9700    0.0420 c3        1 MOL      0.122047
    146 C47       -10.4890   -1.6310   -0.7850 c3        1 MOL      0.126442
    147 C48       -11.7380   -1.5170    0.1210 c3        1 MOL     -0.032033
    148 N13       -12.9670   -1.4150   -0.7420 n4        1 MOL     -0.128929
    149 H67        -6.2130   -2.1730    2.1730 hn        1 MOL      0.375298
    150 H68        -6.7780   -3.3580    0.2330 h1        1 MOL      0.032534
    151 H69        -8.0720   -2.8400   -1.3580 hc        1 MOL      0.002239
    152 H70        -7.9850   -1.1630   -1.4520 hc        1 MOL      0.002239
    153 H71        -9.2060   -1.2730    0.8790 hc        1 MOL     -0.032124
    154 H72        -9.3700   -2.9950    0.4220 hc        1 MOL     -0.032124
    155 H73       -10.6520   -2.4500   -1.4910 hc        1 MOL     -0.004983
    156 H74       -10.3400   -0.7000   -1.3260 hc        1 MOL     -0.004983
    157 H75       -11.6300   -0.6770    0.8030 hx        1 MOL      0.080304
    158 H76       -11.8160   -2.3900    0.7810 hx        1 MOL      0.080304
    159 H77       -13.8160   -1.1310   -0.2850 hn        1 MOL      0.194470
    160 H78       -12.8610   -0.8940   -1.5990 hn        1 MOL      0.194470
    161 H79       -13.2390   -2.3070   -1.1180 hn        1 MOL      0.194470
    162 N14        -5.0330   -2.8730   -1.6410 n         1 MOL     -0.771243
    163 C49        -3.8190   -2.7570   -2.4500 c3        1 MOL      0.485838
    164 C50        -2.5600   -2.5750   -1.6720 c         1 MOL      0.199322
    165 O22        -1.8840   -1.6420   -2.0400 o         1 MOL     -0.552299
    166 C51        -3.6850   -4.0120   -3.3960 c3        1 MOL      0.005522
    167 C52        -4.7880   -4.1530   -4.4460 c3        1 MOL     -0.290801
    168 C53        -4.5610   -5.4370   -5.2650 c         1 MOL      0.685556
    169 O23        -4.5260   -6.5730   -4.6510 o         1 MOL     -0.642098
    170 O24        -4.3760   -5.3580   -6.4930 o         1 MOL     -0.642098
    171 H80        -5.5960   -3.6980   -1.7960 hn        1 MOL      0.350847
    172 H81        -3.8560   -1.8670   -3.0910 h1        1 MOL     -0.036953
    173 H82        -3.6360   -4.9700   -2.8780 hc        1 MOL      0.050973
    174 H83        -2.7380   -3.8900   -3.9210 hc        1 MOL      0.050973
    175 H84        -4.6530   -3.3400   -5.1530 hc        1 MOL      0.042062
    176 H85        -5.7830   -4.1620   -3.9890 hc        1 MOL      0.042062
    177 N15        -2.1540   -3.3290   -0.6050 n         1 MOL     -0.206693
    178 C54        -2.6090   -4.7150   -0.0940 c3        1 MOL     -0.138277
    179 H86        -3.0490   -4.6090    0.8970 h1        1 MOL      0.065706
    180 H87        -3.3500   -5.1290   -0.7770 h1        1 MOL      0.065706
    181 H88        -1.7490   -5.3820   -0.0410 h1        1 MOL      0.065706
    182 H89        -1.3150   -2.9550   -0.1840 hn        1 MOL      0.316015
    183 Ca1        -0.4880    0.6210   -1.4440 Ca        1 MOL      1.853826
    184 O25        -2.1700    0.6630   -3.6730 oh        1 MOL     -0.889570
    185 H90        -2.1230   -0.0460   -4.3150 ho        1 MOL      0.429045
    186 H91        -3.1030    0.8660   -3.6110 ho        1 MOL      0.429045
    187 O26         1.3270   -0.3850   -3.1750 oh        1 MOL     -0.889570
    188 H92         1.6750    0.3240   -3.7160 ho        1 MOL      0.429045
    189 H93         2.1010   -0.8810   -2.8960 ho        1 MOL      0.429045
    190 O27        -3.0780    1.0450   -0.4990 oh        1 MOL     -0.889570
    191 H94        -3.7630    0.4220   -0.7280 ho        1 MOL      0.429045
    192 H95        -3.5210    1.7180    0.0180 ho        1 MOL      0.429045
@<TRIPOS>BOND
     1    1    2 1   
     2    1    4 1   
     3    1    5 1   
     4    1    6 1   
     5    2    3 2   
     6    2    7 1   
     7    7    8 1   
     8    7   15 1   
     9    8    9 1   
    10    8   11 1   
    11    8   16 1   
    12    9   10 2   
    13    9   19 1   
    14   11   12 1   
    15   11   17 1   
    16   11   18 1   
    17   12   13 1   
    18   12   14 1   
    19   19   20 1   
    20   19   28 1   
    21   20   21 1   
    22   20   23 1   
    23   20   29 1   
    24   21   22 2   
    25   21   41 1   
    26   23   24 1   
    27   23   30 1   
    28   23   31 1   
    29   24   25 1   
    30   24   32 1   
    31   24   33 1   
    32   25   26 1   
    33   25   34 1   
    34   25   35 1   
    35   26   27 1   
    36   26   36 1   
    37   26   37 1   
    38   27   38 1   
    39   27   39 1   
    40   27   40 1   
    41   41   42 1   
    42   41   49 1   
    43   42   43 1   
    44   42   45 1   
    45   42   50 1   
    46   43   44 2   
    47   43   53 1   
    48   45   46 1   
    49   45   51 1   
    50   45   52 1   
    51   46   47 1   
    52   46   48 1   
    53   53   54 1   
    54   53   57 1   
    55   54   55 1   
    56   54   58 1   
    57   54   59 1   
    58   55   56 2   
    59   55   60 1   
    60   60   61 1   
    61   60   68 1   
    62   61   62 1   
    63   61   64 1   
    64   61   69 1   
    65   62   63 2   
    66   62   72 1   
    67   64   65 1   
    68   64   70 1   
    69   64   71 1   
    70   65   66 1   
    71   65   67 1   
    72   72   73 1   
    73   72   76 1   
    74   73   74 1   
    75   73   77 1   
    76   73   78 1   
    77   74   75 2   
    78   74   79 1   
    79   79   80 1   
    80   79   86 1   
    81   80   81 1   
    82   80   83 1   
    83   80   87 1   
    84   81   82 2   
    85   81   93 1   
    86   83   84 1   
    87   83   85 1   
    88   83   88 1   
    89   84   90 1   
    90   84   91 1   
    91   84   92 1   
    92   85   89 1   
    93   93   94 1   
    94   93  101 1   
    95   94   95 1   
    96   94   97 1   
    97   94  102 1   
    98   95   96 2   
    99   95  112 1   
   100   97   98 1   
   101   97   99 1   
   102   97  103 1   
   103   98  100 1   
   104   98  104 1   
   105   98  105 1   
   106   99  106 1   
   107   99  107 1   
   108   99  108 1   
   109  100  109 1   
   110  100  110 1   
   111  100  111 1   
   112  112  113 1   
   113  112  119 1   
   114  113  114 1   
   115  113  116 1   
   116  113  120 1   
   117  114  115 2   
   118  114  126 1   
   119  116  117 1   
   120  116  118 1   
   121  116  121 1   
   122  117  123 1   
   123  117  124 1   
   124  117  125 1   
   125  118  122 1   
   126  126  127 1   
   127  126  133 1   
   128  127  128 1   
   129  127  130 1   
   130  127  134 1   
   131  128  129 2   
   132  128  140 1   
   133  130  131 1   
   134  130  132 1   
   135  130  135 1   
   136  131  137 1   
   137  131  138 1   
   138  131  139 1   
   139  132  136 1   
   140  140  141 1   
   141  140  149 1   
   142  141  142 1   
   143  141  144 1   
   144  141  150 1   
   145  142  143 2   
   146  142  162 1   
   147  144  145 1   
   148  144  151 1   
   149  144  152 1   
   150  145  146 1   
   151  145  153 1   
   152  145  154 1   
   153  146  147 1   
   154  146  155 1   
   155  146  156 1   
   156  147  148 1   
   157  147  157 1   
   158  147  158 1   
   159  148  159 1   
   160  148  160 1   
   161  148  161 1   
   162  162  163 1   
   163  162  171 1   
   164  163  164 1   
   165  163  166 1   
   166  163  172 1   
   167  164  165 2   
   168  164  177 1   
   169  166  167 1   
   170  166  173 1   
   171  166  174 1   
   172  167  168 1   
   173  167  175 1   
   174  167  176 1   
   175  168  169 1   
   176  168  170 1   
   177  177  178 1   
   178  177  182 1   
   179  178  179 1   
   180  178  180 1   
   181  178  181 1   
   182  184  185 1   
   183  184  186 1   
   184  187  188 1   
   185  187  189 1   
   186  190  191 1   
   187  190  192 1   
@<TRIPOS>SUBSTRUCTURE
     1 MOL         1 TEMP              0 ****  ****    0 ROOT
