@<TRIPOS>MOLECULE
MOL
  189   185     1     0     0
SMALL
resp


@<TRIPOS>ATOM
      1 C1          9.6660    0.9820    1.5530 c3        1 MOL     -0.565719
      2 C2          8.4940    0.4980    0.6800 c         1 MOL      0.879612
      3 O1          7.4130    0.4000    1.2640 o         1 MOL     -0.699982
      4 H1         10.0640    1.9100    1.1430 hc        1 MOL      0.144382
      5 H2          9.3140    1.1560    2.5700 hc        1 MOL      0.144382
      6 H3         10.4490    0.2240    1.5630 hc        1 MOL      0.144382
      7 N1          8.6310    0.2000   -0.6510 n         1 MOL     -0.875113
      8 C3          7.5940   -0.2060   -1.5990 c3        1 MOL      0.390590
      9 C4          7.1190   -1.6390   -1.4350 c         1 MOL      0.320515
     10 O2          7.1350   -2.4330   -2.3220 o         1 MOL     -0.501521
     11 C5          8.1160    0.0980   -2.9530 c3        1 MOL     -0.194596
     12 C6          8.6830    1.4500   -3.2710 c         1 MOL      0.694402
     13 O3          8.7650    1.8070   -4.4510 o         1 MOL     -0.629624
     14 O4          9.2940    2.1640   -2.4200 o         1 MOL     -0.629624
     15 H4          9.5790    0.2720   -0.9940 hn        1 MOL      0.363623
     16 H5          6.7370    0.4510   -1.4220 h1        1 MOL      0.034134
     17 H6          7.2570    0.1260   -3.6260 hc        1 MOL      0.049543
     18 H7          8.7840   -0.6920   -3.2820 hc        1 MOL      0.049543
     19 N2          6.6180   -1.9960   -0.2380 n         1 MOL      0.031826
     20 C7          6.2130   -3.3900    0.0210 c3        1 MOL      0.036634
     21 C8          4.6500   -3.7680   -0.1140 c         1 MOL      0.518836
     22 O5          4.3650   -4.7620   -0.7530 o         1 MOL     -0.534339
     23 C9          6.7480   -3.9670    1.2780 c3        1 MOL     -0.055318
     24 C10         8.3110   -3.8810    1.4260 c3        1 MOL     -0.012121
     25 C11         8.6860   -4.4000    2.8590 c3        1 MOL      0.145851
     26 C12        10.2520   -4.4230    3.0440 c3        1 MOL      0.096127
     27 N3         10.7000   -4.9300    4.3330 n4        1 MOL     -0.139857
     28 H8          6.4150   -1.3010    0.4550 hn        1 MOL      0.152249
     29 H9          6.6330   -3.9320   -0.8360 h1        1 MOL      0.061745
     30 H10         6.4690   -5.0190    1.2820 hc        1 MOL      0.010551
     31 H11         6.2970   -3.4640    2.1270 hc        1 MOL      0.010551
     32 H12         8.5900   -2.8460    1.2580 hc        1 MOL     -0.005300
     33 H13         8.7760   -4.4970    0.6500 hc        1 MOL     -0.005300
     34 H14         8.2430   -5.3740    3.0630 hc        1 MOL     -0.034682
     35 H15         8.3660   -3.6310    3.5640 hc        1 MOL     -0.034682
     36 H16        10.6500   -3.4160    2.9780 hx        1 MOL      0.027607
     37 H17        10.6710   -5.0360    2.2490 hx        1 MOL      0.027607
     38 H18        10.0930   -5.6520    4.6980 hn        1 MOL      0.202861
     39 H19        11.6210   -5.3330    4.2590 hn        1 MOL      0.202861
     40 H20        10.7800   -4.2320    5.0520 hn        1 MOL      0.202861
     41 N4          3.6780   -3.0040    0.3550 n         1 MOL     -0.442533
     42 C13         3.7790   -1.7240    1.0590 c3        1 MOL      0.063467
     43 C14         3.8030   -0.5730    0.0800 c         1 MOL      0.002475
     44 O6          3.5480   -0.7010   -1.1150 o         1 MOL     -0.372647
     45 C15         2.5580   -1.5800    1.9910 c3        1 MOL     -0.153731
     46 C16         1.2190   -1.7200    1.2870 c         1 MOL      0.633704
     47 O7          0.6100   -0.6920    0.8850 o         1 MOL     -0.604611
     48 O8          0.7480   -2.8540    1.1570 o         1 MOL     -0.604611
     49 H21         2.7700   -3.4090    0.1620 hn        1 MOL      0.303416
     50 H22         4.6150   -1.5590    1.7320 h1        1 MOL      0.103145
     51 H23         2.7530   -0.7340    2.6330 hc        1 MOL      0.021153
     52 H24         2.5950   -2.4990    2.5780 hc        1 MOL      0.021153
     53 N5          4.1710    0.5980    0.6080 n         1 MOL     -0.124279
     54 C17         4.2700    1.8080   -0.1950 c3        1 MOL     -0.084935
     55 C18         2.9720    2.2560   -0.8760 c         1 MOL      0.326416
     56 O9          1.8750    1.8870   -0.4610 o         1 MOL     -0.417158
     57 H25         4.4430    0.6570    1.5740 hn        1 MOL      0.264880
     58 H26         5.1710    1.7490   -0.8160 h1        1 MOL      0.092929
     59 H27         4.5110    2.6260    0.4790 h1        1 MOL      0.092929
     60 N6          3.0610    3.1060   -1.8930 n         1 MOL     -0.183798
     61 C19         1.9480    3.8930   -2.4430 c3        1 MOL     -0.100846
     62 C20         2.4470    5.3410   -2.5960 c         1 MOL      0.521627
     63 O10         3.6230    5.5700   -2.9210 o         1 MOL     -0.539086
     64 C21         1.5320    3.3770   -3.8020 c3        1 MOL     -0.445247
     65 C22         1.2350    1.9470   -3.7930 c         1 MOL      0.769132
     66 O11         0.0980    1.6360   -3.3120 o         1 MOL     -0.681741
     67 O12         1.9000    1.1670   -4.5300 o         1 MOL     -0.681741
     68 H28         3.9880    3.3810   -2.1720 hn        1 MOL      0.247534
     69 H29         1.1470    3.9230   -1.7060 h1        1 MOL      0.103794
     70 H30         2.3290    3.4980   -4.5420 hc        1 MOL      0.152323
     71 H31         0.7430    3.9680   -4.2790 hc        1 MOL      0.152323
     72 N7          1.6290    6.3560   -2.4170 n         1 MOL     -0.412530
     73 C23         0.1840    6.3690   -2.3360 c3        1 MOL      0.081995
     74 C24        -0.3230    6.0110   -0.9190 c         1 MOL      0.487563
     75 O13         0.3910    6.0450    0.0990 o         1 MOL     -0.504155
     76 H32         2.0790    7.2590   -2.5010 hn        1 MOL      0.281438
     77 H33        -0.1870    5.8020   -3.1890 h1        1 MOL      0.048509
     78 H34        -0.1990    7.3590   -2.5310 h1        1 MOL      0.048509
     79 N8         -1.5550    5.4860   -0.9520 n         1 MOL     -0.495230
     80 C25        -2.2130    4.9750    0.2270 c3        1 MOL      0.034823
     81 C26        -1.4050    3.7720    0.7650 c         1 MOL      0.956243
     82 O14        -0.8460    3.0370   -0.0280 o         1 MOL     -0.710838
     83 C27        -3.6740    4.7340   -0.1370 c3        1 MOL      0.261790
     84 C28        -4.5710    4.0090    0.7910 c3        1 MOL     -0.253724
     85 O15        -3.8040    3.9250   -1.3180 oh        1 MOL     -0.646395
     86 H35        -2.1850    5.5620   -1.7320 hn        1 MOL      0.280055
     87 H36        -2.1180    5.6590    1.0670 h1        1 MOL      0.017454
     88 H37        -4.1120    5.7190   -0.2630 h1        1 MOL      0.024804
     89 H38        -4.5990    4.3130   -1.6930 ho        1 MOL      0.423407
     90 H39        -5.4770    3.7100    0.2610 hc        1 MOL      0.057827
     91 H40        -4.0480    3.0990    1.1050 hc        1 MOL      0.057827
     92 H41        -4.7660    4.6520    1.6510 hc        1 MOL      0.057827
     93 N9         -1.4040    3.6340    2.1000 n         1 MOL     -0.688440
     94 C29        -0.8500    2.5710    2.8980 c3        1 MOL      0.113082
     95 C30        -1.5710    1.2050    2.7040 c         1 MOL      0.474041
     96 O16        -1.6350    0.6530    1.5890 o         1 MOL     -0.530159
     97 C31         0.6570    2.3970    2.7830 c3        1 MOL      0.325809
     98 C32         1.3440    3.7810    2.8790 c3        1 MOL     -0.214799
     99 C33         1.2890    1.4620    3.8790 c3        1 MOL     -0.335687
    100 C34         1.1510    4.5220    4.2270 c3        1 MOL     -0.196944
    101 H42        -1.7440    4.4510    2.5840 hn        1 MOL      0.313442
    102 H43        -0.9740    2.7940    3.9580 h1        1 MOL      0.016816
    103 H44         0.8450    1.8990    1.8320 hc        1 MOL     -0.159739
    104 H45         1.0450    4.4660    2.0930 hc        1 MOL      0.115048
    105 H46         2.4170    3.6660    2.8190 hc        1 MOL      0.115048
    106 H47         0.9590    1.7690    4.8760 hc        1 MOL      0.079172
    107 H48         0.9060    0.4420    3.7880 hc        1 MOL      0.079172
    108 H49         2.3760    1.5070    3.8310 hc        1 MOL      0.079172
    109 H50         1.3890    3.8380    5.0340 hc        1 MOL      0.048408
    110 H51         1.8490    5.3560    4.2480 hc        1 MOL      0.048408
    111 H52         0.1390    4.8690    4.4260 hc        1 MOL      0.048408
    112 N10        -1.9930    0.5580    3.8080 n         1 MOL     -0.409230
    113 C35        -2.5220   -0.8460    3.7210 c3        1 MOL     -0.070079
    114 C36        -3.8650   -0.8810    3.0170 c         1 MOL      0.497360
    115 O17        -4.2760   -1.9670    2.6320 o         1 MOL     -0.542225
    116 C37        -2.6590   -1.4820    5.1460 c3        1 MOL      0.305102
    117 C38        -3.7300   -0.7620    5.9540 c3        1 MOL     -0.047872
    118 O18        -1.5050   -1.3280    5.9040 oh        1 MOL     -0.596624
    119 H53        -1.7840    0.9700    4.7010 hn        1 MOL      0.283987
    120 H54        -1.7870   -1.4730    3.2110 h1        1 MOL      0.126609
    121 H55        -3.0040   -2.5120    5.0780 h1        1 MOL      0.009874
    122 H56        -0.8820   -1.9820    5.5760 ho        1 MOL      0.395635
    123 H57        -3.7030    0.3270    5.8170 hc        1 MOL      0.011512
    124 H58        -4.7380   -1.0490    5.6750 hc        1 MOL      0.011512
    125 H59        -3.6630   -0.9100    7.0300 hc        1 MOL      0.011512
    126 N11        -4.5670    0.2580    2.8100 n         1 MOL     -0.079255
    127 C39        -6.0040    0.1680    2.3230 c3        1 MOL     -0.623547
    128 C40        -5.9180   -0.2590    0.8050 c         1 MOL      0.793907
    129 O19        -5.2290    0.2910   -0.0420 o         1 MOL     -0.570359
    130 C41        -6.7250    1.5570    2.6150 c3        1 MOL      0.529218
    131 C42        -8.1330    1.5430    2.1160 c3        1 MOL     -0.451002
    132 O20        -6.9720    1.8160    3.9270 oh        1 MOL     -0.631410
    133 H60        -4.2400    1.1020    3.2610 hn        1 MOL      0.142814
    134 H61        -6.5330   -0.6170    2.8620 h1        1 MOL      0.182212
    135 H62        -6.1770    2.3260    2.0590 h1        1 MOL      0.044140
    136 H63        -6.9880    1.0200    4.4640 ho        1 MOL      0.412181
    137 H64        -8.6660    2.4330    2.4260 hc        1 MOL      0.113506
    138 H65        -8.1810    1.4120    1.0300 hc        1 MOL      0.113506
    139 H66        -8.7520    0.7950    2.6120 hc        1 MOL      0.113506
    140 N12        -6.6780   -1.2990    0.5160 n         1 MOL     -0.445817
    141 C43        -7.0910   -1.9190   -0.7970 c3        1 MOL      0.157456
    142 C44        -5.8980   -2.2280   -1.7480 c         1 MOL      0.539972
    143 O21        -5.9480   -1.7030   -2.8300 o         1 MOL     -0.505757
    144 C45        -8.3840   -1.3380   -1.4710 c3        1 MOL     -0.449821
    145 C46        -9.6050   -1.6470   -0.6560 c3        1 MOL      0.021851
    146 C47       -10.8000   -1.4250   -1.5370 c3        1 MOL      0.120300
    147 C48       -12.1490   -1.4840   -0.8310 c3        1 MOL     -0.090751
    148 N13       -13.1640   -1.2540   -1.8580 n4        1 MOL     -0.018804
    149 H67        -7.0590   -1.7440    1.3400 hn        1 MOL      0.239818
    150 H68        -7.3180   -2.9450   -0.5150 h1        1 MOL      0.039640
    151 H69        -8.5400   -1.8140   -2.4410 hc        1 MOL      0.155683
    152 H70        -8.3590   -0.2530   -1.5710 hc        1 MOL      0.155683
    153 H71        -9.7010   -0.9730    0.1950 hc        1 MOL      0.017613
    154 H72        -9.5410   -2.6660   -0.2830 hc        1 MOL      0.017613
    155 H73       -10.8230   -2.0360   -2.4400 hc        1 MOL      0.005253
    156 H74       -10.7330   -0.4480   -1.9990 hc        1 MOL      0.005253
    157 H75       -12.1960   -0.7880    0.0120 hx        1 MOL      0.082410
    158 H76       -12.2370   -2.5080   -0.4670 hx        1 MOL      0.082410
    159 H77       -14.1320   -1.3030   -1.5610 hn        1 MOL      0.161086
    160 H78       -13.1160   -0.3680   -2.3360 hn        1 MOL      0.161086
    161 H79       -13.0900   -1.9320   -2.6120 hn        1 MOL      0.161086
    162 N14        -4.8780   -2.9330   -1.2770 n         1 MOL     -0.437224
    163 C49        -3.6280   -3.0480   -1.9400 c3        1 MOL      0.013232
    164 C50        -2.5070   -2.6570   -0.9970 c         1 MOL      0.547290
    165 O22        -2.0680   -1.5070   -0.8940 o         1 MOL     -0.579847
    166 C51        -3.4710   -4.4660   -2.5480 c3        1 MOL      0.258290
    167 C52        -4.2030   -4.5680   -3.8480 c3        1 MOL     -0.292614
    168 C53        -4.0370   -5.9800   -4.5060 c         1 MOL      0.665063
    169 O23        -4.8440   -6.9260   -4.2520 o         1 MOL     -0.601295
    170 O24        -2.9910   -6.2440   -5.1140 o         1 MOL     -0.601295
    171 H80        -4.9660   -3.4690   -0.4230 hn        1 MOL      0.281221
    172 H81        -3.7240   -2.3340   -2.7620 h1        1 MOL      0.103011
    173 H82        -3.9540   -5.2200   -1.9410 hc        1 MOL     -0.028847
    174 H83        -2.4260   -4.7640   -2.6750 hc        1 MOL     -0.028847
    175 H84        -3.9140   -3.7030   -4.4420 hc        1 MOL      0.034602
    176 H85        -5.2400   -4.3660   -3.5880 hc        1 MOL      0.034602
    177 N15        -1.8120   -3.6070   -0.2830 n         1 MOL     -0.372226
    178 C54        -2.2730   -4.8680    0.2800 c3        1 MOL      0.065942
    179 H86        -3.3550   -4.9410    0.1690 h1        1 MOL      0.016421
    180 H87        -1.7970   -5.6960   -0.2460 h1        1 MOL      0.016421
    181 H88        -2.0120   -4.9110    1.3370 h1        1 MOL      0.016421
    182 H89        -1.1010   -3.1000    0.2290 hn        1 MOL      0.277527
    183 Ca1        -0.4700    0.6010   -0.9200 Ca        1 MOL      1.778765
    184 O25        -2.9810    1.2570   -1.0520 oh        1 MOL     -1.119446
    185 H90        -3.4190    2.0520   -1.3480 ho        1 MOL      0.523534
    186 H91        -3.7030    0.6830   -0.7750 ho        1 MOL      0.523534
    187 O26         0.8860   -1.3330   -2.2260 oh        1 MOL     -1.119446
    188 H92         1.0670   -1.8500   -3.0040 ho        1 MOL      0.523534
    189 H93         1.6940   -1.3880   -1.7150 ho        1 MOL      0.523534
@<TRIPOS>BOND
     1    1    2 1   
     2    1    4 1   
     3    1    5 1   
     4    1    6 1   
     5    2    3 2   
     6    2    7 1   
     7    7    8 1   
     8    7   15 1   
     9    8    9 1   
    10    8   11 1   
    11    8   16 1   
    12    9   10 2   
    13    9   19 1   
    14   11   12 1   
    15   11   17 1   
    16   11   18 1   
    17   12   13 1   
    18   12   14 1   
    19   19   20 1   
    20   19   28 1   
    21   20   21 1   
    22   20   23 1   
    23   20   29 1   
    24   21   22 2   
    25   21   41 1   
    26   23   24 1   
    27   23   30 1   
    28   23   31 1   
    29   24   25 1   
    30   24   32 1   
    31   24   33 1   
    32   25   26 1   
    33   25   34 1   
    34   25   35 1   
    35   26   27 1   
    36   26   36 1   
    37   26   37 1   
    38   27   38 1   
    39   27   39 1   
    40   27   40 1   
    41   41   42 1   
    42   41   49 1   
    43   42   43 1   
    44   42   45 1   
    45   42   50 1   
    46   43   44 2   
    47   43   53 1   
    48   45   46 1   
    49   45   51 1   
    50   45   52 1   
    51   46   47 1   
    52   46   48 1   
    53   53   54 1   
    54   53   57 1   
    55   54   55 1   
    56   54   58 1   
    57   54   59 1   
    58   55   56 2   
    59   55   60 1   
    60   60   61 1   
    61   60   68 1   
    62   61   62 1   
    63   61   64 1   
    64   61   69 1   
    65   62   63 2   
    66   62   72 1   
    67   64   65 1   
    68   64   70 1   
    69   64   71 1   
    70   65   66 1   
    71   65   67 1   
    72   72   73 1   
    73   72   76 1   
    74   73   74 1   
    75   73   77 1   
    76   73   78 1   
    77   74   75 2   
    78   74   79 1   
    79   79   80 1   
    80   79   86 1   
    81   80   81 1   
    82   80   83 1   
    83   80   87 1   
    84   81   82 2   
    85   81   93 1   
    86   83   84 1   
    87   83   85 1   
    88   83   88 1   
    89   84   90 1   
    90   84   91 1   
    91   84   92 1   
    92   85   89 1   
    93   93   94 1   
    94   93  101 1   
    95   94   95 1   
    96   94   97 1   
    97   94  102 1   
    98   95   96 2   
    99   95  112 1   
   100   97   98 1   
   101   97   99 1   
   102   97  103 1   
   103   98  100 1   
   104   98  104 1   
   105   98  105 1   
   106   99  106 1   
   107   99  107 1   
   108   99  108 1   
   109  100  109 1   
   110  100  110 1   
   111  100  111 1   
   112  112  113 1   
   113  112  119 1   
   114  113  114 1   
   115  113  116 1   
   116  113  120 1   
   117  114  115 2   
   118  114  126 1   
   119  116  117 1   
   120  116  118 1   
   121  116  121 1   
   122  117  123 1   
   123  117  124 1   
   124  117  125 1   
   125  118  122 1   
   126  126  127 1   
   127  126  133 1   
   128  127  128 1   
   129  127  130 1   
   130  127  134 1   
   131  128  129 2   
   132  128  140 1   
   133  130  131 1   
   134  130  132 1   
   135  130  135 1   
   136  131  137 1   
   137  131  138 1   
   138  131  139 1   
   139  132  136 1   
   140  140  141 1   
   141  140  149 1   
   142  141  142 1   
   143  141  144 1   
   144  141  150 1   
   145  142  143 2   
   146  142  162 1   
   147  144  145 1   
   148  144  151 1   
   149  144  152 1   
   150  145  146 1   
   151  145  153 1   
   152  145  154 1   
   153  146  147 1   
   154  146  155 1   
   155  146  156 1   
   156  147  148 1   
   157  147  157 1   
   158  147  158 1   
   159  148  159 1   
   160  148  160 1   
   161  148  161 1   
   162  162  163 1   
   163  162  171 1   
   164  163  164 1   
   165  163  166 1   
   166  163  172 1   
   167  164  165 2   
   168  164  177 1   
   169  166  167 1   
   170  166  173 1   
   171  166  174 1   
   172  167  168 1   
   173  167  175 1   
   174  167  176 1   
   175  168  169 1   
   176  168  170 1   
   177  177  178 1   
   178  177  182 1   
   179  178  179 1   
   180  178  180 1   
   181  178  181 1   
   182  184  185 1   
   183  184  186 1   
   184  187  188 1   
   185  187  189 1   
@<TRIPOS>SUBSTRUCTURE
     1 MOL         1 TEMP              0 ****  ****    0 ROOT
