@<TRIPOS>MOLECULE
MOL
  182   178     1     0     0
SMALL
resp


@<TRIPOS>ATOM
      1 C1         -0.4170   -3.6470    6.2040 c3        1 MOL     -0.413773
      2 C2          0.0770   -3.4760    4.7030 c         1 MOL      0.804219
      3 O1         -0.7910   -3.6480    3.8510 o         1 MOL     -0.577673
      4 H1         -1.4530   -3.3180    6.2850 hc        1 MOL      0.115819
      5 H2         -0.3450   -4.6950    6.4930 hc        1 MOL      0.115819
      6 H3          0.2080   -3.0440    6.8630 hc        1 MOL      0.115819
      7 N1          1.3250   -3.2250    4.3430 n         1 MOL     -0.616160
      8 C3          1.6390   -2.9530    2.9060 c3        1 MOL      0.208516
      9 C4          1.4820   -4.2380    2.0090 c         1 MOL      0.540720
     10 O2          1.9120   -5.3230    2.3180 o         1 MOL     -0.536927
     11 C5          3.0460   -2.3380    2.8290 c3        1 MOL      0.002783
     12 C6          3.4400   -1.7730    1.4780 c         1 MOL      0.042950
     13 O3          4.3050   -0.8860    1.4760 o         1 MOL     -0.439146
     14 O4          2.7140   -1.9960    0.4510 o         1 MOL     -0.439146
     15 H4          2.0030   -3.0410    5.0780 hn        1 MOL      0.328700
     16 H5          0.9900   -2.1970    2.4430 h1        1 MOL     -0.449297
     17 H6          3.7630   -3.1340    3.0320 hc        1 MOL      0.076335
     18 H7          3.0300   -1.6120    3.6420 hc        1 MOL      0.076335
     19 N2          0.8550   -4.0190    0.8530 n         1 MOL     -0.155712
     20 C7          0.7720   -4.9740   -0.2890 c3        1 MOL     -0.132555
     21 C8          2.0140   -5.1900   -1.1000 c         1 MOL      0.564379
     22 O5          2.0060   -6.2640   -1.8160 o         1 MOL     -0.617543
     23 C9         -0.5380   -4.5170   -1.0850 c3        1 MOL     -0.292180
     24 C10        -0.8700   -5.4920   -2.2280 c3        1 MOL      0.373664
     25 C11        -2.1820   -5.1890   -2.9340 c3        1 MOL     -0.097027
     26 C12        -2.2200   -6.1030   -4.2070 c3        1 MOL      0.090695
     27 N3         -3.6230   -6.4280   -4.6130 n4        1 MOL     -0.100004
     28 H8          0.5490   -3.0700    0.6690 hn        1 MOL      0.180802
     29 H9          0.5400   -5.8760    0.2680 h1        1 MOL      0.129194
     30 H10        -0.2930   -3.5140   -1.4490 hc        1 MOL      0.091019
     31 H11        -1.3860   -4.5120   -0.4090 hc        1 MOL      0.091019
     32 H12        -0.9570   -6.5340   -1.9050 hc        1 MOL     -0.043463
     33 H13        -0.1270   -5.3840   -3.0190 hc        1 MOL     -0.043463
     34 H14        -2.0910   -4.1630   -3.2760 hc        1 MOL      0.024315
     35 H15        -3.0300   -5.3740   -2.2620 hc        1 MOL      0.024315
     36 H16        -1.6950   -7.0390   -3.9880 hx        1 MOL      0.039445
     37 H17        -1.8890   -5.5920   -5.0990 hx        1 MOL      0.039445
     38 H18        -3.6680   -6.8450   -5.5290 hn        1 MOL      0.203315
     39 H19        -4.1310   -6.9210   -3.8860 hn        1 MOL      0.203315
     40 H20        -4.1800   -5.5790   -4.6690 hn        1 MOL      0.203315
     41 N4          3.0350   -4.3770   -1.0030 n         1 MOL     -0.276826
     42 C13         4.4230   -4.6830   -1.5480 c3        1 MOL      0.017194
     43 C14         5.5570   -4.5360   -0.5750 c         1 MOL      0.419783
     44 O6          6.4930   -5.3490   -0.5630 o         1 MOL     -0.514084
     45 C15         4.6360   -3.7630   -2.7890 c3        1 MOL     -0.275860
     46 C16         4.1470   -2.3250   -2.4880 c         1 MOL      0.710944
     47 O7          4.8370   -1.5360   -1.7610 o         1 MOL     -0.723892
     48 O8          3.0650   -1.9220   -2.9460 o         1 MOL     -0.723892
     49 H21         2.9000   -3.4510   -0.6180 hn        1 MOL      0.217122
     50 H22         4.5030   -5.7090   -1.9110 h1        1 MOL      0.128301
     51 H23         4.1170   -4.1860   -3.6460 hc        1 MOL      0.100192
     52 H24         5.6770   -3.6650   -3.1130 hc        1 MOL      0.100192
     53 N5          5.3880   -3.6300    0.4190 n         1 MOL     -0.043795
     54 C17         6.3760   -3.3110    1.4280 c3        1 MOL     -0.237425
     55 C18         7.1460   -1.9820    1.1680 c         1 MOL      0.462964
     56 O9          7.8840   -1.5500    2.0460 o         1 MOL     -0.538449
     57 H25         4.7600   -2.8580    0.2210 hn        1 MOL     -0.028290
     58 H26         7.0610   -4.1470    1.5780 h1        1 MOL      0.141023
     59 H27         5.8360   -3.0950    2.3450 h1        1 MOL      0.141023
     60 N6          6.8010   -1.2690    0.0810 n         1 MOL     -0.138298
     61 C19         7.4660   -0.0370   -0.3720 c3        1 MOL      0.152035
     62 C20         6.5530    1.2120   -0.4230 c         1 MOL      0.361537
     63 O10         5.3020    1.0590   -0.5570 o         1 MOL     -0.424307
     64 C21         8.2220   -0.3350   -1.6090 c3        1 MOL     -0.404611
     65 C22         7.8960    0.5590   -2.8680 c         1 MOL      0.705739
     66 N7          6.6570    0.4710   -3.3420 n         1 MOL     -0.780183
     67 O11         8.6970    1.3310   -3.3410 o         1 MOL     -0.587247
     68 H28         6.0090   -1.6150   -0.4330 hn        1 MOL      0.151406
     69 H29         8.1190    0.2260    0.4470 h1        1 MOL      0.039235
     70 H30         8.0940   -1.3660   -1.9290 hc        1 MOL      0.125337
     71 H31         9.2940   -0.1540   -1.5610 hc        1 MOL      0.125337
     72 H32         6.0450   -0.1760   -2.8660 hn        1 MOL      0.344126
     73 H33         6.4050    1.1980   -4.0020 hn        1 MOL      0.344126
     74 N8          7.0680    2.4830   -0.3230 n         1 MOL     -0.275713
     75 C23         6.4280    3.7250   -0.5360 c3        1 MOL     -0.161430
     76 C24         5.1960    4.0010    0.4270 c         1 MOL      0.598988
     77 O12         5.3860    3.6630    1.6380 o         1 MOL     -0.488526
     78 H34         8.0790    2.5460   -0.2100 hn        1 MOL      0.288036
     79 H35         6.0800    3.6030   -1.5650 h1        1 MOL      0.090780
     80 H36         7.1970    4.5000   -0.5900 h1        1 MOL      0.090780
     81 N9          4.0280    4.4530   -0.0580 n         1 MOL     -0.600180
     82 C25         2.7810    4.5710    0.7350 c3        1 MOL      0.172953
     83 C26         2.1380    3.2460    1.0920 c         1 MOL      0.707597
     84 O13         2.6210    2.2180    0.5550 o         1 MOL     -0.671088
     85 C27         1.7890    5.4990   -0.0920 c3        1 MOL     -0.383739
     86 C28         2.0990    6.9270   -0.4380 ca        1 MOL      0.179077
     87 C29         2.3090    7.8060    0.6230 ca        1 MOL     -0.178157
     88 C30         1.9870    7.3700   -1.7930 ca        1 MOL     -0.178157
     89 C31         2.4920    9.1280    0.3080 ca        1 MOL     -0.241811
     90 C32         2.1880    8.7340   -2.0540 ca        1 MOL     -0.241811
     91 C33         2.5610    9.5720   -1.0410 ca        1 MOL      0.336783
     92 O14         2.8440   10.9090   -1.2740 oh        1 MOL     -0.519914
     93 H37         3.9470    4.4380   -1.0650 hn        1 MOL      0.321777
     94 H38         2.9680    5.0860    1.6780 h1        1 MOL      0.083275
     95 H39         0.8630    5.7010    0.4450 hc        1 MOL      0.089316
     96 H40         1.6390    4.9940   -1.0490 hc        1 MOL      0.089316
     97 H41         2.0960    7.5530    1.6510 ha        1 MOL      0.141833
     98 H42         1.7260    6.6890   -2.5780 ha        1 MOL      0.141833
     99 H43         2.6790    9.8280    1.1170 ha        1 MOL      0.154737
    100 H44         2.1940    9.0770   -3.0790 ha        1 MOL      0.154737
    101 H45         2.9800   11.5040   -0.5360 ho        1 MOL      0.389852
    102 N10         1.2590    3.1760    2.0530 n         1 MOL     -0.687439
    103 C34         0.5720    1.9610    2.5910 c3        1 MOL      0.064856
    104 C35         0.0480    0.8950    1.5690 c         1 MOL      0.298203
    105 O15         0.8720    0.2560    0.9020 o         1 MOL     -0.182987
    106 C36         1.4390    1.2750    3.6540 c3        1 MOL      0.363757
    107 C37         0.5830    0.3030    4.5560 c3        1 MOL     -0.289998
    108 C38         2.1090    2.2980    4.5710 c3        1 MOL     -0.144884
    109 C39        -0.3480    0.9060    5.5630 c3        1 MOL     -0.328917
    110 H46         0.9960    4.0650    2.4520 hn        1 MOL      0.340752
    111 H47        -0.3780    2.2870    3.0260 h1        1 MOL      0.084610
    112 H48         2.1120    0.6040    3.1190 hc        1 MOL     -0.014114
    113 H49         1.2490   -0.4080    5.0420 hc        1 MOL      0.128200
    114 H50         0.0710   -0.4510    3.9580 hc        1 MOL      0.128200
    115 H51         2.7830    3.0070    4.0970 hc        1 MOL      0.033908
    116 H52         1.3050    2.9140    4.9710 hc        1 MOL      0.033908
    117 H53         2.6090    1.7500    5.3610 hc        1 MOL      0.033908
    118 H54        -0.8870    1.6880    5.0330 hc        1 MOL      0.092764
    119 H55        -1.0580    0.1540    5.8980 hc        1 MOL      0.092764
    120 H56         0.0770    1.2730    6.5010 hc        1 MOL      0.092764
    121 N11        -1.2760    0.6310    1.4030 n         1 MOL     -0.251744
    122 C40        -1.7590   -0.4200    0.4250 c3        1 MOL     -0.322920
    123 C41        -3.2230   -0.2980   -0.0020 c         1 MOL      0.812607
    124 O16        -3.6410   -1.1150   -0.8110 o         1 MOL     -0.654702
    125 C42        -1.6750   -1.7020    1.2550 c3        1 MOL      0.545144
    126 O17        -2.1620   -1.6440    2.5950 oh        1 MOL     -0.665489
    127 H57        -1.9370    1.2760    1.8050 hn        1 MOL      0.207475
    128 H58        -1.1770   -0.4120   -0.4940 h1        1 MOL      0.126282
    129 H59        -0.6120   -1.9290    1.3410 h1        1 MOL     -0.060878
    130 H60        -2.0640   -2.5300    0.6580 h1        1 MOL     -0.060878
    131 H61        -1.9160   -2.4100    3.1110 ho        1 MOL      0.408001
    132 N12        -4.0220    0.6330    0.4790 n         1 MOL     -0.720104
    133 C43        -5.4400    0.9150    0.0950 c3        1 MOL      0.319565
    134 C44        -5.6200    1.6640   -1.3380 c         1 MOL      0.567948
    135 O18        -4.8940    2.6630   -1.5240 o         1 MOL     -0.580574
    136 C45        -6.1960    1.6170    1.2310 c3        1 MOL     -0.536838
    137 H62        -3.6400    1.1910    1.2400 hn        1 MOL      0.358654
    138 H63        -5.9930   -0.0150   -0.0140 h1        1 MOL      0.076174
    139 H64        -6.3180    0.9940    2.1170 hc        1 MOL      0.158820
    140 H65        -5.7800    2.6180    1.3570 hc        1 MOL      0.158820
    141 H66        -7.2570    1.8030    1.0370 hc        1 MOL      0.158820
    142 N13        -6.6020    1.3800   -2.1730 n         1 MOL     -0.594817
    143 C46        -7.6850    0.4660   -1.9460 c3        1 MOL      0.407662
    144 C47        -8.9770    0.8130   -2.7090 c         1 MOL      0.277651
    145 O19        -8.9610    1.0260   -3.9360 o         1 MOL     -0.523464
    146 C48        -7.2810   -0.9630   -2.4260 c3        1 MOL     -0.315005
    147 H67        -6.6610    1.9800   -2.9860 hn        1 MOL      0.334347
    148 H68        -7.9750    0.4090   -0.9020 h1        1 MOL     -0.104704
    149 H69        -7.6910   -1.6930   -1.7350 hc        1 MOL      0.089080
    150 H70        -7.5300   -1.1700   -3.4710 hc        1 MOL      0.089080
    151 H71        -6.1980   -1.0460   -2.4950 hc        1 MOL      0.089080
    152 N14       -10.1320    0.9340   -2.1150 n         1 MOL     -0.209916
    153 C49       -10.4180    0.5450   -0.7020 c3        1 MOL     -0.155041
    154 C50        -9.9380    1.6060    0.3110 c         1 MOL      0.561891
    155 O20        -9.6460    1.4070    1.4410 o         1 MOL     -0.541457
    156 C51       -11.9470    0.2160   -0.5030 c3        1 MOL      0.029400
    157 C52       -12.1300   -0.6300    0.7600 c3        1 MOL     -0.065939
    158 C53       -13.5430   -1.0240    1.1050 c         1 MOL      0.667090
    159 O21       -13.9770   -2.1850    0.9180 o         1 MOL     -0.652879
    160 O22       -14.2090   -0.1310    1.6490 o         1 MOL     -0.652879
    161 H72       -10.9470    1.1970   -2.6430 hn        1 MOL      0.242930
    162 H73        -9.8610   -0.3510   -0.4300 h1        1 MOL      0.142219
    163 H74       -12.2530   -0.4260   -1.3310 hc        1 MOL      0.007904
    164 H75       -12.5850    1.0900   -0.4040 hc        1 MOL      0.007904
    165 H76       -11.6690   -0.0420    1.5660 hc        1 MOL     -0.009076
    166 H77       -11.5100   -1.5090    0.5910 hc        1 MOL     -0.009076
    167 N15        -9.7930    2.7680   -0.1940 n         1 MOL     -0.251524
    168 C54        -9.0810    3.9030    0.5450 c3        1 MOL     -0.141557
    169 H78        -9.3070    3.8390    1.6090 h1        1 MOL      0.084117
    170 H79        -8.0040    3.8150    0.3960 h1        1 MOL      0.084117
    171 H80        -9.4250    4.8620    0.1570 h1        1 MOL      0.084117
    172 H81       -10.2890    3.0040   -1.0440 hn        1 MOL      0.219920
    173 Ca1         2.9440    0.0950   -1.0350 Ca        1 MOL      1.761054
    174 O23         1.0240    2.1000   -1.8240 oh        1 MOL     -0.837203
    175 H82         1.2670    2.5760   -2.6260 ho        1 MOL      0.410193
    176 H83         0.3510    2.6420   -1.4180 ho        1 MOL      0.410193
    177 O24         0.4780   -0.7670   -2.0590 oh        1 MOL     -0.837203
    178 H84        -0.0920   -0.0580   -2.3330 ho        1 MOL      0.410193
    179 H85         0.1540   -1.5420   -2.5360 ho        1 MOL      0.410193
    180 O25         3.7210    1.6210   -3.0150 oh        1 MOL     -0.837203
    181 H86         3.0800    1.5120   -3.7200 ho        1 MOL      0.410193
    182 H87         4.4320    2.1240   -3.4110 ho        1 MOL      0.410193
@<TRIPOS>BOND
     1    1    2 1   
     2    1    4 1   
     3    1    5 1   
     4    1    6 1   
     5    2    3 2   
     6    2    7 1   
     7    7    8 1   
     8    7   15 1   
     9    8    9 1   
    10    8   11 1   
    11    8   16 1   
    12    9   10 2   
    13    9   19 1   
    14   11   12 1   
    15   11   17 1   
    16   11   18 1   
    17   12   13 1   
    18   12   14 1   
    19   19   20 1   
    20   19   28 1   
    21   20   21 1   
    22   20   23 1   
    23   20   29 1   
    24   21   22 2   
    25   21   41 1   
    26   23   24 1   
    27   23   30 1   
    28   23   31 1   
    29   24   25 1   
    30   24   32 1   
    31   24   33 1   
    32   25   26 1   
    33   25   34 1   
    34   25   35 1   
    35   26   27 1   
    36   26   36 1   
    37   26   37 1   
    38   27   38 1   
    39   27   39 1   
    40   27   40 1   
    41   41   42 1   
    42   41   49 1   
    43   42   43 1   
    44   42   45 1   
    45   42   50 1   
    46   43   44 2   
    47   43   53 1   
    48   45   46 1   
    49   45   51 1   
    50   45   52 1   
    51   46   47 1   
    52   46   48 1   
    53   53   54 1   
    54   53   57 1   
    55   54   55 1   
    56   54   58 1   
    57   54   59 1   
    58   55   56 2   
    59   55   60 1   
    60   60   61 1   
    61   60   68 1   
    62   61   62 1   
    63   61   64 1   
    64   61   69 1   
    65   62   63 2   
    66   62   74 1   
    67   64   65 1   
    68   64   70 1   
    69   64   71 1   
    70   65   66 1   
    71   65   67 2   
    72   66   72 1   
    73   66   73 1   
    74   74   75 1   
    75   74   78 1   
    76   75   76 1   
    77   75   79 1   
    78   75   80 1   
    79   76   77 2   
    80   76   81 1   
    81   81   82 1   
    82   81   93 1   
    83   82   83 1   
    84   82   85 1   
    85   82   94 1   
    86   83   84 2   
    87   83  102 1   
    88   85   86 1   
    89   85   95 1   
    90   85   96 1   
    91   86   87 ar  
    92   86   88 ar  
    93   87   89 ar  
    94   87   97 1   
    95   88   90 ar  
    96   88   98 1   
    97   89   91 ar  
    98   89   99 1   
    99   90   91 ar  
   100   90  100 1   
   101   91   92 1   
   102   92  101 1   
   103  102  103 1   
   104  102  110 1   
   105  103  104 1   
   106  103  106 1   
   107  103  111 1   
   108  104  105 2   
   109  104  121 1   
   110  106  107 1   
   111  106  108 1   
   112  106  112 1   
   113  107  109 1   
   114  107  113 1   
   115  107  114 1   
   116  108  115 1   
   117  108  116 1   
   118  108  117 1   
   119  109  118 1   
   120  109  119 1   
   121  109  120 1   
   122  121  122 1   
   123  121  127 1   
   124  122  123 1   
   125  122  125 1   
   126  122  128 1   
   127  123  124 2   
   128  123  132 1   
   129  125  126 1   
   130  125  129 1   
   131  125  130 1   
   132  126  131 1   
   133  132  133 1   
   134  132  137 1   
   135  133  134 1   
   136  133  136 1   
   137  133  138 1   
   138  134  135 2   
   139  134  142 1   
   140  136  139 1   
   141  136  140 1   
   142  136  141 1   
   143  142  143 1   
   144  142  147 1   
   145  143  144 1   
   146  143  146 1   
   147  143  148 1   
   148  144  145 2   
   149  144  152 1   
   150  146  149 1   
   151  146  150 1   
   152  146  151 1   
   153  152  153 1   
   154  152  161 1   
   155  153  154 1   
   156  153  156 1   
   157  153  162 1   
   158  154  155 2   
   159  154  167 1   
   160  156  157 1   
   161  156  163 1   
   162  156  164 1   
   163  157  158 1   
   164  157  165 1   
   165  157  166 1   
   166  158  159 1   
   167  158  160 1   
   168  167  168 1   
   169  167  172 1   
   170  168  169 1   
   171  168  170 1   
   172  168  171 1   
   173  174  175 1   
   174  174  176 1   
   175  177  178 1   
   176  177  179 1   
   177  180  181 1   
   178  180  182 1   
@<TRIPOS>SUBSTRUCTURE
     1 MOL         1 TEMP              0 ****  ****    0 ROOT
