@<TRIPOS>MOLECULE
MOL
  185   180     1     0     0
SMALL
resp


@<TRIPOS>ATOM
      1 C1          4.6950   -0.7090    5.5840 c3        1 MOL     -0.355767
      2 C2          3.7980   -0.4260    4.3380 c         1 MOL      0.760476
      3 O1          2.8150    0.2850    4.5220 o         1 MOL     -0.589103
      4 H1          5.7380   -0.7770    5.2730 hc        1 MOL      0.085924
      5 H2          4.5830    0.1010    6.3040 hc        1 MOL      0.085924
      6 H3          4.3920   -1.6500    6.0450 hc        1 MOL      0.085924
      7 N1          4.1600   -0.9570    3.1790 n         1 MOL     -0.650510
      8 C3          3.2780   -0.9010    1.9800 c3        1 MOL     -0.015638
      9 C4          3.2690   -2.1710    1.2080 c         1 MOL      0.666716
     10 O2          2.3060   -2.4420    0.4710 o         1 MOL     -0.652805
     11 C5          3.6370    0.2630    1.0990 c3        1 MOL     -0.010267
     12 C6          5.1270    0.2230    0.7790 c         1 MOL      0.581916
     13 O3          5.4370   -0.7100    0.0580 o         1 MOL     -0.630741
     14 O4          5.9900    1.0040    1.2650 o         1 MOL     -0.630741
     15 H4          5.0210   -1.4730    3.1650 hn        1 MOL      0.351312
     16 H5          2.2430   -0.7000    2.2790 h1        1 MOL      0.104370
     17 H6          3.3590    1.1800    1.6120 hc        1 MOL      0.006504
     18 H7          3.0850    0.2070    0.1540 hc        1 MOL      0.006504
     19 N2          4.2950   -3.0300    1.4080 n         1 MOL     -0.578306
     20 C7          4.3400   -4.4880    1.0230 c3        1 MOL      0.192735
     21 C8          4.6650   -4.7100   -0.4510 c         1 MOL      0.463418
     22 O5          5.2590   -5.6590   -0.9370 o         1 MOL     -0.538157
     23 C9          5.2740   -5.3420    1.9010 c3        1 MOL     -0.137924
     24 C10         4.7290   -5.2260    3.3230 c3        1 MOL      0.195168
     25 C11         5.5070   -6.0140    4.4290 c3        1 MOL     -0.121539
     26 C12         5.5000   -7.5300    4.1270 c3        1 MOL      0.025437
     27 N3          6.1450   -8.3520    5.0800 n4        1 MOL     -0.237419
     28 H8          4.9990   -2.7160    2.0700 hn        1 MOL      0.318628
     29 H9          3.3260   -4.8740    1.1650 h1        1 MOL      0.043819
     30 H10         6.2870   -4.9390    1.8790 hc        1 MOL      0.046246
     31 H11         5.3020   -6.3830    1.5660 hc        1 MOL      0.046246
     32 H12         3.7340   -5.6660    3.2890 hc        1 MOL     -0.044203
     33 H13         4.5620   -4.2190    3.6940 hc        1 MOL     -0.044203
     34 H14         5.1650   -5.7910    5.4410 hc        1 MOL      0.039341
     35 H15         6.5080   -5.6080    4.3060 hc        1 MOL      0.039341
     36 H16         5.9160   -7.8180    3.1640 hx        1 MOL      0.091723
     37 H17         4.4370   -7.7680    4.0850 hx        1 MOL      0.091723
     38 H18         5.7230   -8.4000    5.9970 hn        1 MOL      0.289106
     39 H19         6.2840   -9.3240    4.8550 hn        1 MOL      0.289106
     40 H20         7.0830   -8.0210    5.3000 hn        1 MOL      0.289106
     41 N4          4.1610   -3.7450   -1.2670 n         1 MOL     -0.304591
     42 C13         4.1730   -3.8310   -2.7550 c3        1 MOL      0.007567
     43 C14         4.6590   -2.5000   -3.4410 c         1 MOL      0.496930
     44 O6          4.6690   -2.3620   -4.6250 o         1 MOL     -0.546562
     45 C15         2.7350   -4.2390   -3.2040 c3        1 MOL     -0.125441
     46 C16         1.6020   -3.5760   -2.4310 c         1 MOL      0.730095
     47 O7          1.3170   -2.3480   -2.5530 o         1 MOL     -0.757115
     48 O8          1.0100   -4.2550   -1.5160 o         1 MOL     -0.757115
     49 H21         3.6120   -3.0110   -0.8530 hn        1 MOL      0.241257
     50 H22         4.8640   -4.6100   -3.0890 h1        1 MOL      0.113549
     51 H23         2.5210   -5.3090   -3.2370 hc        1 MOL      0.031447
     52 H24         2.5810   -3.9410   -4.2360 hc        1 MOL      0.031447
     53 N5          5.0320   -1.4670   -2.7060 n         1 MOL     -0.323147
     54 C17         5.2270   -0.0830   -3.1580 c3        1 MOL      0.025067
     55 C18         6.6760    0.3310   -3.4530 c         1 MOL      0.578605
     56 O9          7.6090   -0.4900   -3.6510 o         1 MOL     -0.543986
     57 H25         5.2120   -1.5860   -1.7160 hn        1 MOL      0.197362
     58 H26         4.7360    0.5960   -2.4570 h1        1 MOL      0.050337
     59 H27         4.6090    0.2640   -3.9950 h1        1 MOL      0.050337
     60 N6          6.9960    1.6070   -3.6610 n         1 MOL     -0.581239
     61 C19         6.1800    2.7810   -3.3820 c3        1 MOL      0.411897
     62 C20         6.4810    3.2390   -1.9350 c         1 MOL      0.359121
     63 O10         7.6490    3.1540   -1.5340 o         1 MOL     -0.495952
     64 C21         6.4150    3.8250   -4.4300 c3        1 MOL     -0.351078
     65 C22         5.6030    5.0510   -4.2450 c         1 MOL      0.679112
     66 N7          4.3130    5.0300   -4.4840 n         1 MOL     -0.786640
     67 O11         6.0660    5.9700   -3.5670 o         1 MOL     -0.534110
     68 H28         7.9650    1.6770   -3.9320 hn        1 MOL      0.330734
     69 H29         5.1190    2.5160   -3.4920 h1        1 MOL     -0.040499
     70 H30         6.1850    3.2700   -5.3440 hc        1 MOL      0.086579
     71 H31         7.4150    4.2330   -4.5340 hc        1 MOL      0.086579
     72 H32         3.8950    4.3200   -5.0740 hn        1 MOL      0.351932
     73 H33         3.6740    5.8030   -4.3780 hn        1 MOL      0.351932
     74 N8          5.5310    3.5580   -1.0290 n         1 MOL     -0.215251
     75 C23         4.0550    3.7720   -1.2930 c3        1 MOL     -0.233482
     76 C24         3.2560    4.3000   -0.2040 c         1 MOL      0.745998
     77 O12         3.9300    4.8730    0.6690 o         1 MOL     -0.559463
     78 H34         5.8930    3.7240   -0.1010 hn        1 MOL      0.266098
     79 H35         3.6240    2.7960   -1.5230 h1        1 MOL      0.068345
     80 H36         3.9390    4.5100   -2.0950 h1        1 MOL      0.068345
     81 N9          2.0080    4.0910   -0.1860 n         1 MOL     -0.573865
     82 C25         1.0940    4.3480    0.8270 c3        1 MOL      0.113748
     83 C26        -0.0810    3.4070    0.7200 c         1 MOL      0.651360
     84 O13        -0.1670    2.6050   -0.1790 o         1 MOL     -0.565256
     85 C27         0.5790    5.8370    0.6960 c3        1 MOL     -0.244777
     86 C28        -0.2860    6.4760    1.8240 ca        1 MOL      0.019493
     87 C29        -1.5930    6.9130    1.5010 ca        1 MOL     -0.072822
     88 C30         0.2370    6.6590    3.1500 ca        1 MOL     -0.072822
     89 C31        -2.2930    7.5760    2.4950 ca        1 MOL     -0.361971
     90 C32        -0.4560    7.2630    4.1980 ca        1 MOL     -0.361971
     91 C33        -1.7580    7.7730    3.7800 ca        1 MOL      0.415800
     92 O14        -2.4840    8.3370    4.8100 oh        1 MOL     -0.551921
     93 H37         1.6410    3.7450   -1.0610 hn        1 MOL      0.301422
     94 H38         1.4870    4.2800    1.8440 h1        1 MOL      0.070261
     95 H39        -0.0450    5.8260   -0.1960 hc        1 MOL      0.108435
     96 H40         1.4330    6.5010    0.5160 hc        1 MOL      0.108435
     97 H41        -1.9860    6.8420    0.4940 ha        1 MOL      0.129521
     98 H42         1.2280    6.2470    3.2750 ha        1 MOL      0.129521
     99 H43        -3.2660    7.9850    2.2800 ha        1 MOL      0.182553
    100 H44        -0.0040    7.5050    5.1450 ha        1 MOL      0.182553
    101 H45        -1.9570    8.5630    5.5810 ho        1 MOL      0.399201
    102 N10        -1.0150    3.4390    1.6480 n         1 MOL     -0.511001
    103 C34        -2.3090    2.7790    1.5860 c3        1 MOL     -0.060576
    104 C35        -3.1560    3.3290    0.4740 c         1 MOL      0.570749
    105 O15        -2.9550    4.4420    0.0010 o         1 MOL     -0.500590
    106 C36        -3.0780    2.8370    2.9220 c3        1 MOL      0.303159
    107 C37        -2.6530    1.9130    4.1220 c3        1 MOL     -0.044203
    108 C38        -3.1460    4.2590    3.4680 c3        1 MOL     -0.259026
    109 C39        -3.6730    1.9940    5.3040 c3        1 MOL     -0.233480
    110 H46        -0.9120    4.1080    2.3880 hn        1 MOL      0.247137
    111 H47        -2.1130    1.7190    1.4510 h1        1 MOL      0.011874
    112 H48        -4.0840    2.5210    2.6570 hc        1 MOL     -0.046836
    113 H49        -1.6360    2.2200    4.3480 hc        1 MOL      0.023325
    114 H50        -2.7110    0.8970    3.7410 hc        1 MOL      0.023325
    115 H51        -2.1490    4.5150    3.8370 hc        1 MOL      0.073053
    116 H52        -3.3170    4.9590    2.6470 hc        1 MOL      0.073053
    117 H53        -3.8620    4.3080    4.2850 hc        1 MOL      0.073053
    118 H54        -4.6990    1.9290    4.9300 hc        1 MOL      0.067945
    119 H55        -3.5030    1.1230    5.9260 hc        1 MOL      0.067945
    120 H56        -3.6420    2.9620    5.8070 hc        1 MOL      0.067945
    121 N11        -4.1650    2.5670    0.0610 n         1 MOL     -0.288699
    122 C40        -5.0780    2.7600   -1.0790 c3        1 MOL     -0.305883
    123 C41        -5.4630    1.4590   -1.7360 c         1 MOL      0.822739
    124 O16        -5.3640    0.3700   -1.2210 o         1 MOL     -0.548469
    125 C42        -6.3680    3.3350   -0.4180 c3        1 MOL      0.001423
    126 O17        -7.0380    2.4830    0.5160 oh        1 MOL     -0.608984
    127 H57        -4.1270    1.6350    0.4510 hn        1 MOL      0.266989
    128 H58        -4.6270    3.4490   -1.7810 h1        1 MOL      0.162153
    129 H59        -7.1880    3.7060   -1.0440 h1        1 MOL      0.082573
    130 H60        -6.1300    4.1980    0.2030 h1        1 MOL      0.082573
    131 H61        -7.8060    2.8820    0.9340 ho        1 MOL      0.423609
    132 N12        -5.8940    1.5850   -2.9890 n         1 MOL     -0.649712
    133 C43        -6.3880    0.5590   -3.8810 c3        1 MOL      0.330866
    134 C44        -7.2850   -0.6430   -3.3440 c         1 MOL      0.377907
    135 O18        -7.0940   -1.7850   -3.8250 o         1 MOL     -0.429893
    136 C45        -5.3560    0.1710   -4.9900 c3        1 MOL     -0.373153
    137 H62        -5.8320    2.4790   -3.4530 hn        1 MOL      0.316769
    138 H63        -7.1720    1.0610   -4.4460 h1        1 MOL      0.010258
    139 H64        -5.2260    1.1400   -5.4660 hc        1 MOL      0.107299
    140 H65        -4.4290   -0.2490   -4.5960 hc        1 MOL      0.107299
    141 H66        -5.8360   -0.5750   -5.6410 hc        1 MOL      0.107299
    142 N13        -8.2810   -0.3940   -2.5050 n         1 MOL     -0.447503
    143 C46        -9.2830   -1.3600   -1.9790 c3        1 MOL      0.234202
    144 C47        -8.5880   -2.6600   -1.4720 c         1 MOL      0.476298
    145 O19        -8.8720   -3.7460   -1.9790 o         1 MOL     -0.479981
    146 C48       -10.3370   -1.6720   -3.0090 c3        1 MOL     -0.283651
    147 H67        -8.4960    0.5560   -2.2320 hn        1 MOL      0.262997
    148 H68        -9.7980   -0.8830   -1.1540 h1        1 MOL      0.014704
    149 H69       -11.0780   -2.2440   -2.4500 hc        1 MOL      0.080130
    150 H70       -10.8300   -0.8120   -3.4550 hc        1 MOL      0.080130
    151 H71        -9.9310   -2.2930   -3.8090 hc        1 MOL      0.080130
    152 N14        -7.5960   -2.5160   -0.5830 n         1 MOL     -0.617858
    153 C49        -6.8170   -3.6990   -0.2510 c3        1 MOL      0.149651
    154 C50        -7.1910   -4.3590    1.0940 c         1 MOL      0.519150
    155 O20        -7.2500   -5.5750    1.1190 o         1 MOL     -0.539425
    156 C51        -5.3840   -3.1770   -0.4240 c3        1 MOL      0.144627
    157 C52        -4.3850   -3.9920    0.3740 c3        1 MOL     -0.125656
    158 C53        -2.9580   -3.4050    0.2870 c         1 MOL      0.667899
    159 O21        -2.7170   -2.2200    0.6240 o         1 MOL     -0.743456
    160 O22        -2.0190   -4.1150   -0.1800 o         1 MOL     -0.743456
    161 H72        -7.3600   -1.6270   -0.1650 hn        1 MOL      0.308393
    162 H73        -7.0130   -4.4870   -0.9760 h1        1 MOL      0.094655
    163 H74        -5.2720   -2.2120    0.0640 hc        1 MOL      0.008267
    164 H75        -5.1900   -3.1650   -1.4990 hc        1 MOL      0.008267
    165 H76        -4.4300   -5.0360    0.0460 hc        1 MOL      0.000924
    166 H77        -4.6560   -3.9600    1.4230 hc        1 MOL      0.000924
    167 N15        -7.6720   -3.5810    2.0700 n         1 MOL     -0.297483
    168 C54        -8.3400   -4.0510    3.2670 c3        1 MOL     -0.316978
    169 H78        -9.3980   -4.2050    3.0550 h1        1 MOL      0.131301
    170 H79        -7.8940   -4.9930    3.5880 h1        1 MOL      0.131301
    171 H80        -8.2330   -3.3090    4.0580 h1        1 MOL      0.131301
    172 H81        -7.7520   -2.5920    1.8740 hn        1 MOL      0.233990
    173 Ca1        -0.1760   -2.3570   -0.2830 Ca        1 MOL      1.787676
    174 O23         0.0380    0.1650   -1.2180 oh        1 MOL     -0.843022
    175 H82         0.5980    0.4190   -1.9530 ho        1 MOL      0.413439
    176 H83        -0.1620    0.9870   -0.7740 ho        1 MOL      0.413439
    177 O24        -1.5120   -2.5400   -2.6490 oh        1 MOL     -0.843022
    178 H84        -1.5580   -3.3700   -3.1240 ho        1 MOL      0.413439
    179 H85        -1.5390   -1.8720   -3.3410 ho        1 MOL      0.413439
    180 O25         0.0980   -3.8430    1.9450 oh        1 MOL     -0.843022
    181 H86         0.3650   -3.9220    2.8670 ho        1 MOL      0.413439
    182 H87        -0.2130   -4.7150    1.7030 ho        1 MOL      0.413439
    183 O26        -0.1740   -0.4540    1.5770 oh        1 MOL     -0.843022
    184 H88        -0.8490   -0.6790    2.2250 ho        1 MOL      0.413439
    185 H89         0.0400    0.4610    1.7620 ho        1 MOL      0.413439
@<TRIPOS>BOND
     1    1    2 1   
     2    1    4 1   
     3    1    5 1   
     4    1    6 1   
     5    2    3 2   
     6    2    7 1   
     7    7    8 1   
     8    7   15 1   
     9    8    9 1   
    10    8   11 1   
    11    8   16 1   
    12    9   10 2   
    13    9   19 1   
    14   11   12 1   
    15   11   17 1   
    16   11   18 1   
    17   12   13 1   
    18   12   14 1   
    19   19   20 1   
    20   19   28 1   
    21   20   21 1   
    22   20   23 1   
    23   20   29 1   
    24   21   22 2   
    25   21   41 1   
    26   23   24 1   
    27   23   30 1   
    28   23   31 1   
    29   24   25 1   
    30   24   32 1   
    31   24   33 1   
    32   25   26 1   
    33   25   34 1   
    34   25   35 1   
    35   26   27 1   
    36   26   36 1   
    37   26   37 1   
    38   27   38 1   
    39   27   39 1   
    40   27   40 1   
    41   41   42 1   
    42   41   49 1   
    43   42   43 1   
    44   42   45 1   
    45   42   50 1   
    46   43   44 2   
    47   43   53 1   
    48   45   46 1   
    49   45   51 1   
    50   45   52 1   
    51   46   47 1   
    52   46   48 1   
    53   53   54 1   
    54   53   57 1   
    55   54   55 1   
    56   54   58 1   
    57   54   59 1   
    58   55   56 2   
    59   55   60 1   
    60   60   61 1   
    61   60   68 1   
    62   61   62 1   
    63   61   64 1   
    64   61   69 1   
    65   62   63 2   
    66   62   74 1   
    67   64   65 1   
    68   64   70 1   
    69   64   71 1   
    70   65   66 1   
    71   65   67 2   
    72   66   72 1   
    73   66   73 1   
    74   74   75 1   
    75   74   78 1   
    76   75   76 1   
    77   75   79 1   
    78   75   80 1   
    79   76   77 2   
    80   76   81 1   
    81   81   82 1   
    82   81   93 1   
    83   82   83 1   
    84   82   85 1   
    85   82   94 1   
    86   83   84 2   
    87   83  102 1   
    88   85   86 1   
    89   85   95 1   
    90   85   96 1   
    91   86   87 ar  
    92   86   88 ar  
    93   87   89 ar  
    94   87   97 1   
    95   88   90 ar  
    96   88   98 1   
    97   89   91 ar  
    98   89   99 1   
    99   90   91 ar  
   100   90  100 1   
   101   91   92 1   
   102   92  101 1   
   103  102  103 1   
   104  102  110 1   
   105  103  104 1   
   106  103  106 1   
   107  103  111 1   
   108  104  105 2   
   109  104  121 1   
   110  106  107 1   
   111  106  108 1   
   112  106  112 1   
   113  107  109 1   
   114  107  113 1   
   115  107  114 1   
   116  108  115 1   
   117  108  116 1   
   118  108  117 1   
   119  109  118 1   
   120  109  119 1   
   121  109  120 1   
   122  121  122 1   
   123  121  127 1   
   124  122  123 1   
   125  122  125 1   
   126  122  128 1   
   127  123  124 2   
   128  123  132 1   
   129  125  126 1   
   130  125  129 1   
   131  125  130 1   
   132  126  131 1   
   133  132  133 1   
   134  132  137 1   
   135  133  134 1   
   136  133  136 1   
   137  133  138 1   
   138  134  135 2   
   139  134  142 1   
   140  136  139 1   
   141  136  140 1   
   142  136  141 1   
   143  142  143 1   
   144  142  147 1   
   145  143  144 1   
   146  143  146 1   
   147  143  148 1   
   148  144  145 2   
   149  144  152 1   
   150  146  149 1   
   151  146  150 1   
   152  146  151 1   
   153  152  153 1   
   154  152  161 1   
   155  153  154 1   
   156  153  156 1   
   157  153  162 1   
   158  154  155 2   
   159  154  167 1   
   160  156  157 1   
   161  156  163 1   
   162  156  164 1   
   163  157  158 1   
   164  157  165 1   
   165  157  166 1   
   166  158  159 1   
   167  158  160 1   
   168  167  168 1   
   169  167  172 1   
   170  168  169 1   
   171  168  170 1   
   172  168  171 1   
   173  174  175 1   
   174  174  176 1   
   175  177  178 1   
   176  177  179 1   
   177  180  181 1   
   178  180  182 1   
   179  183  184 1   
   180  183  185 1   
@<TRIPOS>SUBSTRUCTURE
     1 MOL         1 TEMP              0 ****  ****    0 ROOT
