@<TRIPOS>MOLECULE
MOL
  192   187     1     0     0
SMALL
resp


@<TRIPOS>ATOM
      1 C1         -9.4290   -0.1400   -2.1140 c3        1 MOL     -0.607003
      2 C2         -8.2910   -0.4950   -1.1130 c         1 MOL      0.881860
      3 O1         -7.1530   -0.5010   -1.4450 o         1 MOL     -0.668927
      4 H1        -10.1890    0.4510   -1.6040 hc        1 MOL      0.151173
      5 H2         -9.0180    0.4360   -2.9430 hc        1 MOL      0.151173
      6 H3         -9.8770   -1.0570   -2.4960 hc        1 MOL      0.151173
      7 N1         -8.6990   -0.8630    0.0830 n         1 MOL     -0.771894
      8 C3         -7.8480   -0.9670    1.2440 c3        1 MOL      0.229772
      9 C4         -6.9580   -2.2110    1.3290 c         1 MOL      0.415697
     10 O2         -6.7480   -2.7330    2.4210 o         1 MOL     -0.513588
     11 C5         -8.5160   -0.5790    2.5390 c3        1 MOL     -0.168147
     12 C6         -8.9590    0.9160    2.6630 c         1 MOL      0.698312
     13 O3         -8.6510    1.8150    1.8060 o         1 MOL     -0.628679
     14 O4         -9.7290    1.2640    3.5650 o         1 MOL     -0.628679
     15 H4         -9.6810   -1.0840    0.1100 hn        1 MOL      0.358976
     16 H5         -7.0770   -0.2080    1.1200 h1        1 MOL      0.052380
     17 H6         -7.9120   -0.8170    3.4170 hc        1 MOL      0.043662
     18 H7         -9.4080   -1.1680    2.7500 hc        1 MOL      0.043662
     19 N2         -6.6310   -2.6960    0.2000 n         1 MOL     -0.200195
     20 C7         -5.9150   -3.9100    0.0600 c3        1 MOL      0.024439
     21 C8         -4.4170   -3.9570    0.4690 c         1 MOL      0.472520
     22 O5         -3.9950   -4.9420    1.1450 o         1 MOL     -0.538433
     23 C9         -6.0330   -4.4490   -1.3260 c3        1 MOL     -0.017774
     24 C10        -7.4780   -4.7540   -1.7860 c3        1 MOL     -0.028972
     25 C11        -7.4690   -5.3360   -3.1740 c3        1 MOL      0.219516
     26 C12        -8.9510   -5.2250   -3.6710 c3        1 MOL     -0.071152
     27 N3         -9.1770   -5.4730   -5.1110 n4        1 MOL     -0.100603
     28 H8         -6.8720   -2.1040   -0.5800 hn        1 MOL      0.227766
     29 H9         -6.3190   -4.6390    0.7520 h1        1 MOL      0.065089
     30 H10        -5.4700   -5.3610   -1.4990 hc        1 MOL      0.023463
     31 H11        -5.5360   -3.7750   -2.0270 hc        1 MOL      0.023463
     32 H12        -8.0060   -3.8020   -1.7170 hc        1 MOL     -0.009760
     33 H13        -8.0250   -5.3540   -1.0550 hc        1 MOL     -0.009760
     34 H14        -7.0790   -6.3560   -3.2340 hc        1 MOL     -0.024976
     35 H15        -6.7650   -4.7260   -3.7450 hc        1 MOL     -0.024976
     36 H16        -9.2760   -4.2130   -3.4410 hx        1 MOL      0.068498
     37 H17        -9.4390   -6.0070   -3.0910 hx        1 MOL      0.068498
     38 H18        -8.4170   -6.0770   -5.4010 hn        1 MOL      0.192451
     39 H19       -10.1000   -5.8500   -5.2960 hn        1 MOL      0.192451
     40 H20        -9.1650   -4.6490   -5.6970 hn        1 MOL      0.192451
     41 N4         -3.4940   -3.0060    0.1450 n         1 MOL     -0.437965
     42 C13        -3.5290   -1.8260   -0.7780 c3        1 MOL     -0.010728
     43 C14        -3.5940   -0.4980    0.0470 c         1 MOL      0.332794
     44 O6         -3.2830   -0.5160    1.2590 o         1 MOL     -0.407730
     45 C15        -2.2110   -1.7750   -1.5910 c3        1 MOL     -0.071110
     46 C16        -0.9000   -1.9340   -0.7850 c         1 MOL      0.595363
     47 O7         -0.7140   -1.1470    0.1870 o         1 MOL     -0.647252
     48 O8         -0.0760   -2.7220   -1.2060 o         1 MOL     -0.647252
     49 H21        -2.6910   -3.0190    0.7520 hn        1 MOL      0.348560
     50 H22        -4.3980   -1.8240   -1.4320 h1        1 MOL      0.057565
     51 H23        -2.0720   -0.7870   -2.0250 hc        1 MOL      0.024958
     52 H24        -2.2980   -2.4720   -2.4270 hc        1 MOL      0.024958
     53 N5         -4.1040    0.5360   -0.5570 n         1 MOL     -0.194314
     54 C17        -4.2790    1.7910    0.0990 c3        1 MOL     -0.098862
     55 C18        -3.1000    2.4270    0.6850 c         1 MOL      0.507021
     56 O9         -1.9360    1.9460    0.5410 o         1 MOL     -0.624664
     57 H25        -4.2890    0.5070   -1.5440 hn        1 MOL      0.253670
     58 H26        -5.0170    1.7030    0.8920 h1        1 MOL      0.092148
     59 H27        -4.7220    2.5120   -0.5730 h1        1 MOL      0.092148
     60 N6         -3.3100    3.6060    1.2190 n         1 MOL     -0.410235
     61 C19        -2.3730    4.6210    1.7410 c3        1 MOL      0.328781
     62 C20        -2.8870    6.0880    1.6320 c         1 MOL      0.301466
     63 O10        -4.1190    6.1910    1.5220 o         1 MOL     -0.497305
     64 C21        -2.0010    4.3030    3.1600 c3        1 MOL     -0.243577
     65 C22        -1.6530    2.8420    3.3530 c         1 MOL      0.692017
     66 O11        -0.4710    2.5090    3.0810 o         1 MOL     -0.673863
     67 O12        -2.4300    2.0340    3.9070 o         1 MOL     -0.673863
     68 H28        -4.2610    3.9440    1.2780 hn        1 MOL      0.266382
     69 H29        -1.5310    4.6330    1.0540 h1        1 MOL      0.062626
     70 H30        -2.8550    4.5770    3.7850 hc        1 MOL      0.056841
     71 H31        -1.0960    4.8820    3.3430 hc        1 MOL      0.056841
     72 N7         -2.0410    7.0920    1.7530 n         1 MOL     -0.307250
     73 C23        -0.5770    7.1000    1.7740 c3        1 MOL     -0.194302
     74 C24         0.1290    6.4870    0.5990 c         1 MOL      0.697677
     75 O13        -0.3260    6.6190   -0.5010 o         1 MOL     -0.514352
     76 H32        -2.4520    7.9980    1.5820 hn        1 MOL      0.301312
     77 H33        -0.3350    6.5310    2.6680 h1        1 MOL      0.087463
     78 H34        -0.1170    8.0900    1.7540 h1        1 MOL      0.087463
     79 N8          1.2290    5.8280    0.8910 n         1 MOL     -0.632274
     80 C25         2.0920    5.2060   -0.1450 c3        1 MOL      0.065621
     81 C26         1.6240    3.8860   -0.5810 c         1 MOL      0.952125
     82 O14         0.9140    3.1310    0.1630 o         1 MOL     -0.821016
     83 C27         3.5700    5.2590    0.2390 c3        1 MOL      0.284186
     84 C28         4.4240    4.5160   -0.8100 c3        1 MOL     -0.604027
     85 O15         3.7230    4.5620    1.3680 oh        1 MOL     -0.621928
     86 H35         1.5190    5.8000    1.8610 hn        1 MOL      0.343265
     87 H36         1.8520    5.8740   -0.9760 h1        1 MOL      0.012839
     88 H37         3.8630    6.2870    0.4370 h1        1 MOL      0.036248
     89 H38         4.6660    4.5610    1.5660 ho        1 MOL      0.418383
     90 H39         4.1540    3.4850   -1.0650 hc        1 MOL      0.152101
     91 H40         4.4390    5.1320   -1.7060 hc        1 MOL      0.152101
     92 H41         5.3860    4.4990   -0.3000 hc        1 MOL      0.152101
     93 N9          1.6940    3.6570   -1.9010 n         1 MOL     -0.376190
     94 C29         1.1050    2.6350   -2.7430 c3        1 MOL     -0.216097
     95 C30         1.3260    1.2070   -2.2390 c         1 MOL      0.194675
     96 O16         0.7010    0.7400   -1.3300 o         1 MOL     -0.335416
     97 C31        -0.3910    2.8580   -2.9960 c3        1 MOL      0.147170
     98 C32        -0.6080    4.3050   -3.4980 c3        1 MOL     -0.048247
     99 C33        -0.9100    1.8570   -4.1180 c3        1 MOL     -0.440571
    100 C34        -2.0760    4.7400   -3.4760 c3        1 MOL     -0.084993
    101 H42         2.1560    4.3800   -2.4360 hn        1 MOL      0.234480
    102 H43         1.7830    2.6820   -3.6010 h1        1 MOL      0.117719
    103 H44        -0.8920    2.6350   -2.0560 hc        1 MOL      0.140253
    104 H45        -0.1830    4.4880   -4.4760 hc        1 MOL      0.018349
    105 H46        -0.1990    4.9860   -2.7410 hc        1 MOL      0.018349
    106 H47        -0.6070    0.8240   -3.9530 hc        1 MOL      0.121224
    107 H48        -1.9900    1.8640   -4.1740 hc        1 MOL      0.121224
    108 H49        -0.4160    2.0830   -5.0700 hc        1 MOL      0.121224
    109 H50        -2.1430    5.7990   -3.7100 hc        1 MOL      0.020445
    110 H51        -2.7010    4.1510   -4.1480 hc        1 MOL      0.020445
    111 H52        -2.4030    4.5600   -2.4540 hc        1 MOL      0.020445
    112 N10         2.0780    0.4560   -3.0860 n         1 MOL     -0.093497
    113 C35         2.4840   -0.9410   -2.8380 c3        1 MOL     -0.089762
    114 C36         3.9920   -1.1170   -2.8590 c         1 MOL      0.613328
    115 O17         4.5410   -2.1970   -2.9440 o         1 MOL     -0.572782
    116 C37         1.8650   -1.9110   -3.8600 c3        1 MOL      0.483871
    117 C38         2.0370   -1.4740   -5.3270 c3        1 MOL     -0.429025
    118 O18         0.4270   -1.9330   -3.6400 oh        1 MOL     -0.623628
    119 H53         2.5050    0.8560   -3.9080 hn        1 MOL      0.181626
    120 H54         2.2040   -1.3280   -1.8580 h1        1 MOL      0.059181
    121 H55         2.2410   -2.9310   -3.7190 h1        1 MOL     -0.018393
    122 H56         0.3920   -2.1730   -2.7150 ho        1 MOL      0.342615
    123 H57         3.1170   -1.3770   -5.4250 hc        1 MOL      0.098717
    124 H58         1.6630   -2.2540   -5.9830 hc        1 MOL      0.098717
    125 H59         1.4180   -0.5950   -5.5050 hc        1 MOL      0.098717
    126 N11         4.7510   -0.0220   -2.9930 n         1 MOL     -0.445150
    127 C39         6.2690    0.0100   -2.8980 c3        1 MOL      0.006438
    128 C40         6.7610   -0.4310   -1.5040 c         1 MOL      0.539514
    129 O19         7.3740    0.3310   -0.7510 o         1 MOL     -0.521856
    130 C41         6.8740    1.3030   -3.2310 c3        1 MOL      0.408596
    131 C42         6.7550    1.5810   -4.7350 c3        1 MOL     -0.310216
    132 O20         6.2310    2.3160   -2.5420 oh        1 MOL     -0.578834
    133 H60         4.2900    0.8760   -3.0020 hn        1 MOL      0.239922
    134 H61         6.7300   -0.7750   -3.4950 h1        1 MOL      0.053728
    135 H62         7.9410    1.2680   -3.0150 h1        1 MOL     -0.013954
    136 H63         6.4780    2.2410   -1.6230 ho        1 MOL      0.343631
    137 H64         7.5580    2.2530   -5.0580 hc        1 MOL      0.074929
    138 H65         6.9530    0.6540   -5.2810 hc        1 MOL      0.074929
    139 H66         5.7750    1.9400   -5.0320 hc        1 MOL      0.074929
    140 N12         6.5460   -1.7280   -1.2550 n         1 MOL     -0.594722
    141 C43         6.4830   -2.4040    0.1020 c3        1 MOL      0.268030
    142 C44         5.3170   -1.8800    0.9950 c         1 MOL      0.571203
    143 O21         4.7570   -0.8120    0.6980 o         1 MOL     -0.529258
    144 C45         7.8170   -2.4300    0.8320 c3        1 MOL     -0.560095
    145 C46         9.0140   -2.6730   -0.0420 c3        1 MOL      0.299598
    146 C47        10.3510   -2.6610    0.7190 c3        1 MOL     -0.046620
    147 C48        11.5100   -2.4230   -0.2420 c3        1 MOL     -0.003259
    148 N13        12.8480   -2.3440    0.4590 n4        1 MOL     -0.163312
    149 H67         6.0400   -2.2310   -1.9710 hn        1 MOL      0.330133
    150 H68         6.1240   -3.4020   -0.1430 h1        1 MOL      0.048183
    151 H69         7.8560   -3.1280    1.6670 hc        1 MOL      0.143567
    152 H70         8.0670   -1.4680    1.2760 hc        1 MOL      0.143567
    153 H71         9.0410   -1.9610   -0.8730 hc        1 MOL     -0.036520
    154 H72         8.9210   -3.6540   -0.5020 hc        1 MOL     -0.036520
    155 H73        10.5160   -3.5050    1.3880 hc        1 MOL      0.041664
    156 H74        10.3940   -1.7490    1.3100 hc        1 MOL      0.041664
    157 H75        11.4750   -1.4200   -0.6850 hx        1 MOL      0.072856
    158 H76        11.5260   -3.2500   -0.9420 hx        1 MOL      0.072856
    159 H77        13.0080   -3.2250    0.9210 hn        1 MOL      0.216927
    160 H78        13.6360   -2.3210   -0.1690 hn        1 MOL      0.216927
    161 H79        12.9380   -1.5840    1.1210 hn        1 MOL      0.216927
    162 N14         4.8680   -2.7620    1.8390 n         1 MOL     -0.618174
    163 C49         3.6280   -2.6390    2.5280 c3        1 MOL      0.384042
    164 C50         2.3610   -2.5130    1.5780 c         1 MOL      0.228412
    165 O22         1.5920   -1.5900    1.6420 o         1 MOL     -0.434671
    166 C51         3.5110   -3.7020    3.6950 c3        1 MOL      0.196053
    167 C52         4.6490   -3.6650    4.7080 c3        1 MOL     -0.211923
    168 C53         4.3640   -4.5890    5.8470 c         1 MOL      0.650756
    169 O23         3.6740   -4.1860    6.8390 o         1 MOL     -0.625978
    170 O24         4.7550   -5.8030    5.7340 o         1 MOL     -0.625978
    171 H80         5.3580   -3.6290    2.0390 hn        1 MOL      0.334220
    172 H81         3.5810   -1.7130    3.1090 h1        1 MOL     -0.023881
    173 H82         3.5390   -4.6480    3.1710 hc        1 MOL     -0.018497
    174 H83         2.4950   -3.6800    4.0750 hc        1 MOL     -0.018497
    175 H84         4.7970   -2.6500    5.0570 hc        1 MOL     -0.001144
    176 H85         5.5480   -3.9680    4.1750 hc        1 MOL     -0.001144
    177 N15         2.0730   -3.4000    0.6530 n         1 MOL     -0.276765
    178 C54         2.6080   -4.6860    0.2860 c3        1 MOL      0.000097
    179 H86         3.3330   -5.0040    1.0350 h1        1 MOL      0.023078
    180 H87         1.8000   -5.4150    0.2310 h1        1 MOL      0.023078
    181 H88         3.0970   -4.6130   -0.6850 h1        1 MOL      0.023078
    182 H89         1.4310   -3.0200   -0.0270 hn        1 MOL      0.335768
    183 Ca1         0.4650    0.7630    1.3870 Ca        1 MOL      1.721722
    184 O25         3.0040    1.0840    0.9000 oh        1 MOL     -0.837604
    185 H90         3.4920    1.8490    1.1830 ho        1 MOL      0.401083
    186 H91         3.6150    0.3470    1.0060 ho        1 MOL      0.401083
    187 O26         1.8250    0.3340    3.6910 oh        1 MOL     -0.837604
    188 H92         1.5130   -0.2720    4.3640 ho        1 MOL      0.401083
    189 H93         2.3410    0.9840    4.1740 ho        1 MOL      0.401083
    190 O27        -1.0370   -0.3770    3.2170 oh        1 MOL     -0.837604
    191 H94        -1.7540   -0.9990    3.0880 ho        1 MOL      0.401083
    192 H95        -1.4640    0.4580    3.4010 ho        1 MOL      0.401083
@<TRIPOS>BOND
     1    1    2 1   
     2    1    4 1   
     3    1    5 1   
     4    1    6 1   
     5    2    3 2   
     6    2    7 1   
     7    7    8 1   
     8    7   15 1   
     9    8    9 1   
    10    8   11 1   
    11    8   16 1   
    12    9   10 2   
    13    9   19 1   
    14   11   12 1   
    15   11   17 1   
    16   11   18 1   
    17   12   13 1   
    18   12   14 1   
    19   19   20 1   
    20   19   28 1   
    21   20   21 1   
    22   20   23 1   
    23   20   29 1   
    24   21   22 2   
    25   21   41 1   
    26   23   24 1   
    27   23   30 1   
    28   23   31 1   
    29   24   25 1   
    30   24   32 1   
    31   24   33 1   
    32   25   26 1   
    33   25   34 1   
    34   25   35 1   
    35   26   27 1   
    36   26   36 1   
    37   26   37 1   
    38   27   38 1   
    39   27   39 1   
    40   27   40 1   
    41   41   42 1   
    42   41   49 1   
    43   42   43 1   
    44   42   45 1   
    45   42   50 1   
    46   43   44 2   
    47   43   53 1   
    48   45   46 1   
    49   45   51 1   
    50   45   52 1   
    51   46   47 1   
    52   46   48 1   
    53   53   54 1   
    54   53   57 1   
    55   54   55 1   
    56   54   58 1   
    57   54   59 1   
    58   55   56 2   
    59   55   60 1   
    60   60   61 1   
    61   60   68 1   
    62   61   62 1   
    63   61   64 1   
    64   61   69 1   
    65   62   63 2   
    66   62   72 1   
    67   64   65 1   
    68   64   70 1   
    69   64   71 1   
    70   65   66 1   
    71   65   67 1   
    72   72   73 1   
    73   72   76 1   
    74   73   74 1   
    75   73   77 1   
    76   73   78 1   
    77   74   75 2   
    78   74   79 1   
    79   79   80 1   
    80   79   86 1   
    81   80   81 1   
    82   80   83 1   
    83   80   87 1   
    84   81   82 2   
    85   81   93 1   
    86   83   84 1   
    87   83   85 1   
    88   83   88 1   
    89   84   90 1   
    90   84   91 1   
    91   84   92 1   
    92   85   89 1   
    93   93   94 1   
    94   93  101 1   
    95   94   95 1   
    96   94   97 1   
    97   94  102 1   
    98   95   96 2   
    99   95  112 1   
   100   97   98 1   
   101   97   99 1   
   102   97  103 1   
   103   98  100 1   
   104   98  104 1   
   105   98  105 1   
   106   99  106 1   
   107   99  107 1   
   108   99  108 1   
   109  100  109 1   
   110  100  110 1   
   111  100  111 1   
   112  112  113 1   
   113  112  119 1   
   114  113  114 1   
   115  113  116 1   
   116  113  120 1   
   117  114  115 2   
   118  114  126 1   
   119  116  117 1   
   120  116  118 1   
   121  116  121 1   
   122  117  123 1   
   123  117  124 1   
   124  117  125 1   
   125  118  122 1   
   126  126  127 1   
   127  126  133 1   
   128  127  128 1   
   129  127  130 1   
   130  127  134 1   
   131  128  129 2   
   132  128  140 1   
   133  130  131 1   
   134  130  132 1   
   135  130  135 1   
   136  131  137 1   
   137  131  138 1   
   138  131  139 1   
   139  132  136 1   
   140  140  141 1   
   141  140  149 1   
   142  141  142 1   
   143  141  144 1   
   144  141  150 1   
   145  142  143 2   
   146  142  162 1   
   147  144  145 1   
   148  144  151 1   
   149  144  152 1   
   150  145  146 1   
   151  145  153 1   
   152  145  154 1   
   153  146  147 1   
   154  146  155 1   
   155  146  156 1   
   156  147  148 1   
   157  147  157 1   
   158  147  158 1   
   159  148  159 1   
   160  148  160 1   
   161  148  161 1   
   162  162  163 1   
   163  162  171 1   
   164  163  164 1   
   165  163  166 1   
   166  163  172 1   
   167  164  165 2   
   168  164  177 1   
   169  166  167 1   
   170  166  173 1   
   171  166  174 1   
   172  167  168 1   
   173  167  175 1   
   174  167  176 1   
   175  168  169 1   
   176  168  170 1   
   177  177  178 1   
   178  177  182 1   
   179  178  179 1   
   180  178  180 1   
   181  178  181 1   
   182  184  185 1   
   183  184  186 1   
   184  187  188 1   
   185  187  189 1   
   186  190  191 1   
   187  190  192 1   
@<TRIPOS>SUBSTRUCTURE
     1 MOL         1 TEMP              0 ****  ****    0 ROOT
