@<TRIPOS>MOLECULE
MOL
  181   177     1     0     0
SMALL
resp


@<TRIPOS>ATOM
      1 C1        -10.7750    6.3390    1.2180 c3        1 MOL     -0.428932
      2 C2        -10.0330    5.6270    0.1280 c         1 MOL      0.618347
      3 O1        -10.1940    5.8720   -1.0860 o         1 MOL     -0.578993
      4 H1        -11.8460    6.2610    1.0380 hc        1 MOL      0.121231
      5 H2        -10.5330    5.8850    2.1790 hc        1 MOL      0.121231
      6 H3        -10.4850    7.3900    1.2290 hc        1 MOL      0.121231
      7 N1         -9.0980    4.6780    0.4090 n         1 MOL     -0.244451
      8 C3         -8.7290    3.9720    1.6740 c3        1 MOL     -0.288193
      9 C4         -8.3040    2.5350    1.3200 c         1 MOL      0.697820
     10 O2         -7.7410    2.2480    0.2750 o         1 MOL     -0.475841
     11 C5         -7.6480    4.6950    2.4720 c3        1 MOL     -0.018172
     12 C6         -6.4190    5.1260    1.6880 c         1 MOL      0.622347
     13 O3         -5.6490    5.9150    2.2840 o         1 MOL     -0.675712
     14 O4         -6.0710    4.5780    0.6280 o         1 MOL     -0.675712
     15 H4         -8.6520    4.3290   -0.4240 hn        1 MOL      0.174042
     16 H5         -9.5860    3.9460    2.3610 h1        1 MOL      0.100623
     17 H6         -7.3680    3.9630    3.2290 hc        1 MOL      0.023307
     18 H7         -8.1560    5.5520    2.9090 hc        1 MOL      0.023307
     19 N2         -8.5680    1.5850    2.2370 n         1 MOL     -0.739553
     20 C7         -7.9880    0.2240    2.0460 c3        1 MOL      0.488211
     21 C8         -8.6730   -0.4780    0.8810 c         1 MOL      0.445312
     22 O5         -9.8190   -0.2730    0.5380 o         1 MOL     -0.522025
     23 C9         -7.9910   -0.6130    3.2940 c3        1 MOL     -0.356616
     24 H8         -8.8780    1.9270    3.1350 hn        1 MOL      0.360592
     25 H9         -6.9270    0.3320    1.8170 h1        1 MOL     -0.016903
     26 H10        -9.0100   -0.9680    3.3960 hc        1 MOL      0.087597
     27 H11        -7.3470   -1.4820    3.1990 hc        1 MOL      0.087597
     28 H12        -7.6670   -0.0520    4.1790 hc        1 MOL      0.087597
     29 N3         -7.8560   -1.2950    0.2190 n         1 MOL     -0.462186
     30 C10        -8.1960   -1.9540   -1.0560 c3        1 MOL      0.190259
     31 C11        -7.2630   -3.1640   -1.2460 c         1 MOL      0.375956
     32 O6         -6.2070   -3.1710   -0.6860 o         1 MOL     -0.359833
     33 C12        -8.1190   -0.9750   -2.1840 c3        1 MOL     -0.184578
     34 C13        -7.0280    0.0660   -2.1190 c         1 MOL      0.802651
     35 O7         -5.8600   -0.0120   -1.6190 o         1 MOL     -0.766530
     36 O8         -7.3450    1.1300   -2.6400 o         1 MOL     -0.766530
     37 H13        -6.9110   -1.4520    0.5240 hn        1 MOL      0.223543
     38 H14        -9.1980   -2.3730   -0.9960 h1        1 MOL      0.025032
     39 H15        -9.0970   -0.4970   -2.3140 hc        1 MOL      0.046981
     40 H16        -8.0790   -1.5070   -3.1430 hc        1 MOL      0.046981
     41 N4         -7.7470   -4.2750   -1.8170 n         1 MOL     -0.315250
     42 C14        -7.3930   -5.6320   -1.4170 c3        1 MOL     -0.364140
     43 C15        -5.9370   -6.0420   -1.6810 c         1 MOL      0.534416
     44 O9         -5.5870   -7.1950   -1.4670 o         1 MOL     -0.545903
     45 H17        -8.5680   -4.0270   -2.3440 hn        1 MOL      0.250462
     46 H18        -8.0420   -6.3180   -1.9530 h1        1 MOL      0.189407
     47 H19        -7.5210   -5.7160   -0.3420 h1        1 MOL      0.189407
     48 N5         -5.0350   -5.1230   -2.0920 n         1 MOL     -0.185258
     49 C16        -3.6090   -5.3120   -2.4310 c3        1 MOL      0.028748
     50 C17        -2.5280   -4.9180   -1.3850 c         1 MOL      0.428846
     51 O10        -1.3360   -5.2880   -1.5770 o         1 MOL     -0.504410
     52 C18        -3.2680   -4.4260   -3.6760 c3        1 MOL     -0.306098
     53 C19        -3.7070   -3.0300   -3.4330 c         1 MOL      0.641946
     54 N6         -4.7230   -2.4370   -3.9620 n         1 MOL     -0.739811
     55 O11        -2.9540   -2.3420   -2.7610 o         1 MOL     -0.515869
     56 H20        -5.4050   -4.2050   -2.2680 hn        1 MOL      0.054333
     57 H21        -3.3930   -6.3420   -2.7030 h1        1 MOL      0.110433
     58 H22        -3.8630   -4.8750   -4.4720 hc        1 MOL      0.098199
     59 H23        -2.2080   -4.3900   -3.9330 hc        1 MOL      0.098199
     60 H24        -5.2650   -2.8420   -4.7100 hn        1 MOL      0.347846
     61 H25        -4.7880   -1.4680   -3.6800 hn        1 MOL      0.347846
     62 N7         -2.9880   -4.3420   -0.2810 n         1 MOL     -0.312126
     63 C20        -2.1710   -3.6330    0.7220 c3        1 MOL      0.079307
     64 C21        -2.1040   -4.4800    2.0050 c         1 MOL      0.594178
     65 O12        -2.7310   -5.5410    2.1050 o         1 MOL     -0.541008
     66 H26        -3.9870   -4.2240   -0.1500 hn        1 MOL      0.219738
     67 H27        -2.5600   -2.6200    0.8630 h1        1 MOL      0.062383
     68 H28        -1.1630   -3.5370    0.3180 h1        1 MOL      0.062383
     69 N8         -1.6430   -3.8980    3.1480 n         1 MOL     -0.567814
     70 C22        -1.0720   -2.5530    3.1830 c3        1 MOL      0.019008
     71 C23         0.2960   -2.4740    2.4140 c         1 MOL      0.486832
     72 O13         0.9520   -3.4540    2.1670 o         1 MOL     -0.490851
     73 C24        -0.7240   -2.1370    4.6790 c3        1 MOL      0.424286
     74 C25        -1.9660   -2.2790    5.5120 c3        1 MOL     -0.453675
     75 O14         0.2690   -2.8540    5.2390 oh        1 MOL     -0.591380
     76 H29        -1.4480   -4.4790    3.9590 hn        1 MOL      0.321165
     77 H30        -1.7520   -1.7740    2.8340 h1        1 MOL     -0.003990
     78 H31        -0.4380   -1.0830    4.6560 h1        1 MOL      0.031497
     79 H32        -0.0940   -3.5650    5.7790 ho        1 MOL      0.401074
     80 H33        -2.8940   -1.9480    5.0510 hc        1 MOL      0.100432
     81 H34        -2.0820   -3.3600    5.6070 hc        1 MOL      0.100432
     82 H35        -1.7420   -1.8350    6.4800 hc        1 MOL      0.100432
     83 N9          0.7320   -1.2280    2.1140 n         1 MOL     -0.382195
     84 C26         1.9610   -0.8660    1.2380 c3        1 MOL      0.108028
     85 C27         3.0040   -0.0320    2.0290 c         1 MOL      0.411386
     86 O15         2.4830    0.8660    2.7060 o         1 MOL     -0.546119
     87 C28         1.4730   -0.1940   -0.0690 c3        1 MOL      0.031329
     88 C29         0.2700   -0.8420   -0.7430 c3        1 MOL      0.004858
     89 C30         2.5960    0.0180   -1.0420 c3        1 MOL      0.015892
     90 C31         0.6870   -2.0610   -1.5740 c3        1 MOL     -0.137116
     91 H36         0.1950   -0.4820    2.5370 hn        1 MOL      0.206386
     92 H37         2.4640   -1.7310    0.8040 h1        1 MOL      0.105634
     93 H38         1.1060    0.7800    0.2540 hc        1 MOL     -0.004606
     94 H39        -0.1430   -0.0580   -1.3910 hc        1 MOL     -0.028000
     95 H40        -0.5580   -1.1240   -0.0850 hc        1 MOL     -0.028000
     96 H41         3.3910    0.6100   -0.5690 hc        1 MOL     -0.004938
     97 H42         3.0490   -0.9140   -1.3680 hc        1 MOL     -0.004938
     98 H43         2.2490    0.5820   -1.9100 hc        1 MOL     -0.004938
     99 H44         1.1280   -2.8660   -1.0040 hc        1 MOL      0.056500
    100 H45        -0.1870   -2.4300   -2.1020 hc        1 MOL      0.056500
    101 H46         1.3530   -1.7900   -2.3970 hc        1 MOL      0.056500
    102 N10         4.3230   -0.2590    1.9880 n         1 MOL     -0.347706
    103 C32         5.0110   -1.2670    1.2110 c3        1 MOL      0.167741
    104 C33         6.4850   -0.8530    1.1520 c         1 MOL      0.585480
    105 O16         6.8860   -0.0960    2.0650 o         1 MOL     -0.524779
    106 C34         4.8980   -2.6720    1.9030 c3        1 MOL     -0.196595
    107 C35         5.6710   -3.7710    1.1360 c         1 MOL      0.734701
    108 O17         5.7540   -3.6600   -0.0960 o         1 MOL     -0.731243
    109 O18         6.0990   -4.7540    1.8200 o         1 MOL     -0.731243
    110 H47         4.8350    0.2390    2.6940 hn        1 MOL      0.277444
    111 H48         4.5070   -1.2690    0.2510 h1        1 MOL     -0.026926
    112 H49         3.8460   -2.9480    1.9890 hc        1 MOL      0.025884
    113 H50         5.2720   -2.5140    2.9160 hc        1 MOL      0.025884
    114 N11         7.3110   -1.2430    0.1420 n         1 MOL     -0.736052
    115 C36         8.6940   -0.7170   -0.1350 c3        1 MOL      0.730905
    116 C37         8.9470   -0.4240   -1.5990 c         1 MOL      0.011900
    117 O19         8.6830   -1.2690   -2.4620 o         1 MOL     -0.455770
    118 C38         9.7240   -1.7310    0.4740 c3        1 MOL     -0.266691
    119 C39        11.1880   -1.1510    0.5480 ca        1 MOL      0.146317
    120 C40        12.2270   -1.6550   -0.3390 ca        1 MOL     -0.203541
    121 C41        11.5210   -0.1350    1.4580 ca        1 MOL     -0.203541
    122 C42        13.4620   -1.0500   -0.3470 ca        1 MOL     -0.075588
    123 C43        12.8650    0.2840    1.5230 ca        1 MOL     -0.075588
    124 C44        13.7500   -0.0360    0.5420 ca        1 MOL     -0.168392
    125 H51         6.9360   -1.7410   -0.6590 hn        1 MOL      0.354375
    126 H52         8.7550    0.1800    0.4780 h1        1 MOL     -0.129694
    127 H53         9.7380   -2.6120   -0.1660 hc        1 MOL      0.085345
    128 H54         9.3950   -1.9500    1.4900 hc        1 MOL      0.085345
    129 H55        11.9580   -2.4200   -1.0490 ha        1 MOL      0.135371
    130 H56        10.7750    0.2710    2.1230 ha        1 MOL      0.135371
    131 H57        14.1660   -1.2370   -1.1510 ha        1 MOL      0.091897
    132 H58        13.1850    1.0210    2.2530 ha        1 MOL      0.091897
    133 H59        14.6230    0.5830    0.3720 ha        1 MOL      0.102283
    134 N12         9.5510    0.7420   -1.9140 n         1 MOL      0.328655
    135 C45        10.0360    1.7950   -0.9960 c3        1 MOL      0.057645
    136 C46         8.9770    2.9470   -0.7120 c         1 MOL      0.389706
    137 O20         9.1900    3.8630    0.1470 o         1 MOL     -0.499595
    138 C47        11.3010    2.3960   -1.6900 c3        1 MOL     -0.405329
    139 C48        11.5790    1.5220   -2.8500 c3        1 MOL      0.347593
    140 C49        10.3080    0.8080   -3.1540 c3        1 MOL     -0.371292
    141 H60        10.4950    1.4780   -0.0650 h1        1 MOL      0.107259
    142 H61        11.1360    3.4040   -2.0770 hc        1 MOL      0.096176
    143 H62        12.1510    2.3040   -1.0160 hc        1 MOL      0.096176
    144 H63        12.0840    1.9180   -3.7370 hc        1 MOL     -0.058751
    145 H64        12.2700    0.7620   -2.4970 hc        1 MOL     -0.058751
    146 H65         9.6790    1.4660   -3.7580 h1        1 MOL      0.091686
    147 H66        10.4330   -0.1650   -3.6240 h1        1 MOL      0.091686
    148 N13         7.7670    2.7350   -1.3350 n         1 MOL     -0.495326
    149 C50         6.4510    3.3440   -1.0540 c3        1 MOL      0.334543
    150 C51         5.5240    3.3040   -2.2650 c         1 MOL      0.333724
    151 O21         5.6150    2.2730   -2.9700 o         1 MOL     -0.560784
    152 C52         5.7450    2.6870    0.1010 c3        1 MOL     -0.207519
    153 C53         4.7090    3.4720    0.9340 c3        1 MOL      0.018829
    154 C54         5.3620    4.5210    1.7680 c         1 MOL      0.687628
    155 O22         5.6550    4.1790    2.9200 o         1 MOL     -0.695426
    156 O23         5.6050    5.6750    1.3310 o         1 MOL     -0.695426
    157 H67         7.8160    2.0100   -2.0380 hn        1 MOL      0.222123
    158 H68         6.6040    4.3840   -0.7550 h1        1 MOL      0.042312
    159 H69         6.4600    2.2930    0.8370 hc        1 MOL      0.080737
    160 H70         5.3460    1.7320   -0.2480 hc        1 MOL      0.080737
    161 H71         4.0680    2.7720    1.4700 hc        1 MOL     -0.045402
    162 H72         4.0310    3.9810    0.2430 hc        1 MOL     -0.045402
    163 N14         4.7380    4.2960   -2.6770 n         1 MOL     -0.304190
    164 C55         4.5870    5.6730   -2.2170 c3        1 MOL      0.012788
    165 H73         3.5490    5.8480   -1.9330 h1        1 MOL      0.024388
    166 H74         5.2330    5.8420   -1.3560 h1        1 MOL      0.024388
    167 H75         4.8640    6.3570   -3.0190 h1        1 MOL      0.024388
    168 H76         4.1310    4.0870   -3.4600 hn        1 MOL      0.249761
    169 Ca1        -5.7470    2.9510   -1.3530 Ca        1 MOL      1.753562
    170 O24        -4.2740    2.2110   -3.4280 oh        1 MOL     -0.896415
    171 H77        -3.6970    2.7090   -4.0210 ho        1 MOL      0.436091
    172 H78        -3.9840    1.3060   -3.5200 ho        1 MOL      0.436091
    173 O25        -3.2690    3.6070   -0.8520 oh        1 MOL     -0.896415
    174 H79        -2.9780    4.4360   -0.4600 ho        1 MOL      0.436091
    175 H80        -2.7300    2.9380   -0.4240 ho        1 MOL      0.436091
    176 O26        -7.9760    4.4200   -2.4110 oh        1 MOL     -0.896415
    177 H81        -8.3990    3.9170   -3.1050 ho        1 MOL      0.436091
    178 H82        -7.9020    5.3030   -2.7660 ho        1 MOL      0.436091
    179 O27        -4.6150    1.9570    1.0140 oh        1 MOL     -0.896415
    180 H83        -4.6630    2.3840    1.8720 ho        1 MOL      0.436091
    181 H84        -4.0050    1.2260    1.1460 ho        1 MOL      0.436091
@<TRIPOS>BOND
     1    1    2 1   
     2    1    4 1   
     3    1    5 1   
     4    1    6 1   
     5    2    3 2   
     6    2    7 1   
     7    7    8 1   
     8    7   15 1   
     9    8    9 1   
    10    8   11 1   
    11    8   16 1   
    12    9   10 2   
    13    9   19 1   
    14   11   12 1   
    15   11   17 1   
    16   11   18 1   
    17   12   13 1   
    18   12   14 1   
    19   19   20 1   
    20   19   24 1   
    21   20   21 1   
    22   20   23 1   
    23   20   25 1   
    24   21   22 2   
    25   21   29 1   
    26   23   26 1   
    27   23   27 1   
    28   23   28 1   
    29   29   30 1   
    30   29   37 1   
    31   30   31 1   
    32   30   33 1   
    33   30   38 1   
    34   31   32 2   
    35   31   41 1   
    36   33   34 1   
    37   33   39 1   
    38   33   40 1   
    39   34   35 1   
    40   34   36 1   
    41   41   42 1   
    42   41   45 1   
    43   42   43 1   
    44   42   46 1   
    45   42   47 1   
    46   43   44 2   
    47   43   48 1   
    48   48   49 1   
    49   48   56 1   
    50   49   50 1   
    51   49   52 1   
    52   49   57 1   
    53   50   51 2   
    54   50   62 1   
    55   52   53 1   
    56   52   58 1   
    57   52   59 1   
    58   53   54 1   
    59   53   55 2   
    60   54   60 1   
    61   54   61 1   
    62   62   63 1   
    63   62   66 1   
    64   63   64 1   
    65   63   67 1   
    66   63   68 1   
    67   64   65 2   
    68   64   69 1   
    69   69   70 1   
    70   69   76 1   
    71   70   71 1   
    72   70   73 1   
    73   70   77 1   
    74   71   72 2   
    75   71   83 1   
    76   73   74 1   
    77   73   75 1   
    78   73   78 1   
    79   74   80 1   
    80   74   81 1   
    81   74   82 1   
    82   75   79 1   
    83   83   84 1   
    84   83   91 1   
    85   84   85 1   
    86   84   87 1   
    87   84   92 1   
    88   85   86 2   
    89   85  102 1   
    90   87   88 1   
    91   87   89 1   
    92   87   93 1   
    93   88   90 1   
    94   88   94 1   
    95   88   95 1   
    96   89   96 1   
    97   89   97 1   
    98   89   98 1   
    99   90   99 1   
   100   90  100 1   
   101   90  101 1   
   102  102  103 1   
   103  102  110 1   
   104  103  104 1   
   105  103  106 1   
   106  103  111 1   
   107  104  105 2   
   108  104  114 1   
   109  106  107 1   
   110  106  112 1   
   111  106  113 1   
   112  107  108 1   
   113  107  109 1   
   114  114  115 1   
   115  114  125 1   
   116  115  116 1   
   117  115  118 1   
   118  115  126 1   
   119  116  117 2   
   120  116  134 1   
   121  118  119 1   
   122  118  127 1   
   123  118  128 1   
   124  119  120 ar  
   125  119  121 ar  
   126  120  122 ar  
   127  120  129 1   
   128  121  123 ar  
   129  121  130 1   
   130  122  124 ar  
   131  122  131 1   
   132  123  124 ar  
   133  123  132 1   
   134  124  133 1   
   135  134  135 1   
   136  134  140 1   
   137  135  136 1   
   138  135  138 1   
   139  135  141 1   
   140  136  137 2   
   141  136  148 1   
   142  138  139 1   
   143  138  142 1   
   144  138  143 1   
   145  139  140 1   
   146  139  144 1   
   147  139  145 1   
   148  140  146 1   
   149  140  147 1   
   150  148  149 1   
   151  148  157 1   
   152  149  150 1   
   153  149  152 1   
   154  149  158 1   
   155  150  151 2   
   156  150  163 1   
   157  152  153 1   
   158  152  159 1   
   159  152  160 1   
   160  153  154 1   
   161  153  161 1   
   162  153  162 1   
   163  154  155 1   
   164  154  156 1   
   165  163  164 1   
   166  163  168 1   
   167  164  165 1   
   168  164  166 1   
   169  164  167 1   
   170  170  171 1   
   171  170  172 1   
   172  173  174 1   
   173  173  175 1   
   174  176  177 1   
   175  176  178 1   
   176  179  180 1   
   177  179  181 1   
@<TRIPOS>SUBSTRUCTURE
     1 MOL         1 TEMP              0 ****  ****    0 ROOT
