@<TRIPOS>MOLECULE
MOL
  184   179     1     0     0
SMALL
resp


@<TRIPOS>ATOM
      1 C1         -5.1530   -0.1760   -3.8660 c3        1 MOL     -0.215596
      2 C2         -6.3490    0.6580   -3.4870 c         1 MOL      0.637398
      3 O1         -6.2960    1.8630   -3.2760 o         1 MOL     -0.608977
      4 H1         -4.5490    0.3660   -4.5930 hc        1 MOL      0.045552
      5 H2         -4.5560   -0.3790   -2.9780 hc        1 MOL      0.045552
      6 H3         -5.4890   -1.1160   -4.3030 hc        1 MOL      0.045552
      7 N1         -7.4290    0.0090   -3.0130 n         1 MOL     -0.626146
      8 C3         -8.6790    0.6610   -2.6430 c3        1 MOL      0.449001
      9 C4         -8.6860    1.2590   -1.1840 c         1 MOL      0.292645
     10 O2         -9.7240    1.4210   -0.5170 o         1 MOL     -0.513141
     11 C5         -9.8200   -0.2630   -2.9230 c3        1 MOL     -0.481065
     12 C6         -9.8400   -1.5880   -2.2110 c         1 MOL      0.781313
     13 O3        -10.4940   -2.6080   -2.6510 o         1 MOL     -0.726567
     14 O4         -9.0840   -1.8230   -1.2200 o         1 MOL     -0.726567
     15 H4         -7.4320   -1.0120   -3.0350 hn        1 MOL      0.342421
     16 H5         -8.8290    1.4710   -3.3610 h1        1 MOL     -0.001505
     17 H6         -9.8350   -0.4050   -3.9960 hc        1 MOL      0.080276
     18 H7        -10.7440    0.2510   -2.6520 hc        1 MOL      0.080276
     19 N2         -7.4900    1.5070   -0.6790 n         1 MOL     -0.279733
     20 C7         -7.2510    1.7440    0.7990 c3        1 MOL      0.183426
     21 C8         -5.8730    1.2590    1.2010 c         1 MOL      0.458923
     22 O5         -4.9450    1.1380    0.3400 o         1 MOL     -0.458479
     23 C9         -7.4290    3.1960    1.0880 c3        1 MOL     -0.320492
     24 H8         -6.6990    1.3760   -1.2910 hn        1 MOL      0.199325
     25 H9         -7.9170    1.0400    1.3140 h1        1 MOL      0.093496
     26 H10        -8.4770    3.3990    0.9090 hc        1 MOL      0.081032
     27 H11        -7.1600    3.3630    2.1310 hc        1 MOL      0.081032
     28 H12        -6.7590    3.7780    0.4520 hc        1 MOL      0.081032
     29 N3         -5.6070    0.9380    2.5080 n         1 MOL     -0.490394
     30 C10        -4.4810    0.1920    3.1040 c3        1 MOL     -0.139323
     31 C11        -3.9520    0.9040    4.3720 c         1 MOL      0.650381
     32 O6         -4.6080    0.7000    5.4280 o         1 MOL     -0.530444
     33 C12        -4.8940   -1.3060    3.4350 c3        1 MOL     -0.196588
     34 C13        -3.6440   -2.1030    3.8560 c         1 MOL      0.645722
     35 O7         -3.6840   -2.7640    4.9020 o         1 MOL     -0.683710
     36 O8         -2.6330   -2.0470    3.1290 o         1 MOL     -0.683710
     37 H13        -6.3640    1.1510    3.1460 hn        1 MOL      0.288181
     38 H14        -3.6580    0.1580    2.3890 h1        1 MOL      0.135662
     39 H15        -5.3920   -1.7340    2.5650 hc        1 MOL      0.070366
     40 H16        -5.5850   -1.3560    4.2670 hc        1 MOL      0.070366
     41 N4         -2.8380    1.6360    4.3060 n         1 MOL     -0.360813
     42 C14        -2.1610    2.3600    5.4280 c3        1 MOL     -0.208127
     43 C15        -0.8210    3.0130    5.1020 c         1 MOL      0.635787
     44 O9         -0.5580    4.0740    5.6460 o         1 MOL     -0.571034
     45 H17        -2.4130    1.7600    3.3890 hn        1 MOL      0.252390
     46 H18        -2.0470    1.6790    6.2730 h1        1 MOL      0.111465
     47 H19        -2.7970    3.2090    5.7050 h1        1 MOL      0.111465
     48 N5         -0.0640    2.4730    4.1420 n         1 MOL     -0.276144
     49 C16         1.1460    3.1050    3.6160 c3        1 MOL     -0.270555
     50 C17         0.7050    4.3290    2.6570 c         1 MOL      0.654768
     51 O10        -0.2920    4.2660    1.9120 o         1 MOL     -0.488557
     52 C18         1.9760    2.1220    2.7260 c3        1 MOL     -0.202190
     53 C19         2.7620    1.0750    3.3950 c         1 MOL      0.745311
     54 N6          3.7780    1.4620    4.1120 n         1 MOL     -0.706192
     55 O11         2.3850   -0.0630    3.3730 o         1 MOL     -0.580221
     56 H20        -0.3760    1.6160    3.7200 hn        1 MOL      0.242691
     57 H21         1.8650    3.3710    4.3840 h1        1 MOL      0.104712
     58 H22         2.5550    2.5500    1.9080 hc        1 MOL      0.083215
     59 H23         1.1330    1.6660    2.2140 hc        1 MOL      0.083215
     60 H24         4.0600    2.4280    4.1070 hn        1 MOL      0.325911
     61 H25         4.3510    0.7410    4.5210 hn        1 MOL      0.325911
     62 N7          1.4290    5.4970    2.6900 n         1 MOL     -0.442444
     63 C20         1.2720    6.6140    1.7340 c3        1 MOL     -0.177388
     64 C21         2.3430    6.4520    0.6730 c         1 MOL      0.660353
     65 O12         3.3300    5.7480    0.9270 o         1 MOL     -0.511901
     66 H26         2.2900    5.4070    3.2060 hn        1 MOL      0.273801
     67 H27         1.4850    7.5250    2.2970 h1        1 MOL      0.121140
     68 H28         0.2800    6.5340    1.2970 h1        1 MOL      0.121140
     69 N8          2.1630    6.9540   -0.5490 n         1 MOL     -0.490413
     70 C22         3.2700    7.0090   -1.4600 c3        1 MOL     -0.201741
     71 C23         3.6790    5.6700   -2.1000 c         1 MOL      0.243607
     72 O13         4.9190    5.3420   -2.2500 o         1 MOL     -0.537844
     73 C24         2.9590    8.0280   -2.5170 c3        1 MOL      0.521558
     74 C25         1.7880    7.6830   -3.4040 c3        1 MOL     -0.433616
     75 O14         2.7540    9.2640   -1.8410 oh        1 MOL     -0.674633
     76 H29         1.4290    7.6480   -0.6430 hn        1 MOL      0.260415
     77 H30         4.1070    7.3760   -0.8700 h1        1 MOL      0.151891
     78 H31         3.7970    8.2300   -3.1830 h1        1 MOL      0.034637
     79 H32         1.8730    9.3630   -1.4830 ho        1 MOL      0.396911
     80 H33         2.1240    7.0320   -4.2100 hc        1 MOL      0.111992
     81 H34         1.0240    7.1780   -2.8090 hc        1 MOL      0.111992
     82 H35         1.4330    8.6110   -3.8670 hc        1 MOL      0.111992
     83 N9          2.7710    4.8340   -2.4530 n         1 MOL      0.131119
     84 C26         2.9240    3.3770   -2.7680 c3        1 MOL     -0.045916
     85 C27         1.9280    2.6090   -1.9140 c         1 MOL      0.460733
     86 O15         1.0200    3.2640   -1.4430 o         1 MOL     -0.518926
     87 C28         2.8620    3.0430   -4.3130 c3        1 MOL      0.032721
     88 C29         1.4950    3.5800   -4.8930 c3        1 MOL     -0.155775
     89 C30         4.0430    3.8660   -4.9540 c3        1 MOL     -0.234991
     90 C31         0.3170    2.5280   -4.7520 c3        1 MOL      0.111996
     91 H36         1.8380    5.1790   -2.3190 hn        1 MOL      0.141842
     92 H37         3.9200    3.0660   -2.4610 h1        1 MOL      0.081662
     93 H38         3.0750    2.0060   -4.5930 hc        1 MOL      0.058915
     94 H39         1.6910    3.8190   -5.9410 hc        1 MOL      0.023811
     95 H40         1.2010    4.5750   -4.5650 hc        1 MOL      0.023811
     96 H41         3.7410    4.9130   -4.9650 hc        1 MOL      0.059776
     97 H42         4.8780    3.8620   -4.2540 hc        1 MOL      0.059776
     98 H43         4.3320    3.4320   -5.9100 hc        1 MOL      0.059776
     99 H44        -0.5530    2.8060   -5.3520 hc        1 MOL     -0.002917
    100 H45         0.6640    1.6020   -5.2210 hc        1 MOL     -0.002917
    101 H46         0.1650    2.3060   -3.7030 hc        1 MOL     -0.002917
    102 N10         2.1220    1.3130   -1.7490 n         1 MOL     -0.569611
    103 C32         1.3660    0.3990   -0.9050 c3        1 MOL      0.377352
    104 C33         2.4210   -0.5500   -0.1570 c         1 MOL      0.283983
    105 O16         2.1540   -1.7170    0.2480 o         1 MOL     -0.509500
    106 C34         0.5020   -0.5680   -1.7800 c3        1 MOL      0.164062
    107 C35        -0.6270   -1.3710   -0.9630 c         1 MOL      0.887996
    108 O17        -1.1820   -2.4420   -1.4500 o         1 MOL     -0.843160
    109 O18        -0.9470   -0.9430    0.1620 o         1 MOL     -0.843160
    110 H47         2.9730    0.9310   -2.1360 hn        1 MOL      0.263127
    111 H48         0.7980    1.0010   -0.1920 h1        1 MOL      0.066966
    112 H49         1.0770   -1.3130   -2.3280 hc        1 MOL     -0.114277
    113 H50         0.0610    0.1080   -2.5140 hc        1 MOL     -0.114277
    114 N11         3.6350   -0.0560    0.0660 n         1 MOL     -0.339281
    115 C36         4.6910   -0.9360    0.5220 c3        1 MOL      0.219172
    116 C37         5.0110   -2.0590   -0.4100 c         1 MOL      0.286103
    117 O19         5.1370   -1.8720   -1.6340 o         1 MOL     -0.548872
    118 C38         5.8820   -0.0580    0.9820 c3        1 MOL     -0.057792
    119 C39         7.0400   -0.8090    1.5580 ca        1 MOL      0.110114
    120 C40         7.1740   -0.8900    2.9550 ca        1 MOL     -0.245795
    121 C41         8.0600   -1.3650    0.6850 ca        1 MOL     -0.245795
    122 C42         8.3470   -1.4910    3.4860 ca        1 MOL     -0.030866
    123 C43         9.2230   -1.9850    1.2190 ca        1 MOL     -0.030866
    124 C44         9.3840   -1.9930    2.6600 ca        1 MOL     -0.219435
    125 H51         3.8550    0.8400   -0.3330 hn        1 MOL      0.243512
    126 H52         4.2630   -1.3540    1.4320 h1        1 MOL     -0.012813
    127 H53         5.4910    0.6180    1.7420 hc        1 MOL      0.023431
    128 H54         6.1530    0.5980    0.1580 hc        1 MOL      0.023431
    129 H55         6.3710   -0.5530    3.5930 ha        1 MOL      0.145094
    130 H56         8.0150   -1.0630   -0.3530 ha        1 MOL      0.145094
    131 H57         8.4310   -1.6150    4.5520 ha        1 MOL      0.101274
    132 H58         9.9700   -2.3630    0.5380 ha        1 MOL      0.101274
    133 H59        10.2920   -2.4180    3.0600 ha        1 MOL      0.130983
    134 N12         5.2630   -3.2700    0.1670 n         1 MOL      0.055137
    135 C45         5.6940   -4.4330   -0.6060 c3        1 MOL      0.023918
    136 C46         4.6690   -4.8960   -1.6830 c         1 MOL      0.295554
    137 O20         5.1150   -5.5400   -2.5980 o         1 MOL     -0.494426
    138 C47         5.9920   -5.5590    0.4450 c3        1 MOL     -0.146856
    139 C48         5.9420   -4.8330    1.8410 c3        1 MOL     -0.181783
    140 C49         5.1500   -3.5680    1.6200 c3        1 MOL      0.230748
    141 H60         6.6130   -4.1820   -1.1460 h1        1 MOL      0.068170
    142 H61         5.1720   -6.2760    0.4990 hc        1 MOL      0.078372
    143 H62         6.9440   -6.0190    0.1940 hc        1 MOL      0.078372
    144 H63         5.4370   -5.4630    2.5760 hc        1 MOL      0.055338
    145 H64         6.9640   -4.5430    2.0860 hc        1 MOL      0.055338
    146 H65         4.0960   -3.7510    1.8000 h1        1 MOL     -0.035309
    147 H66         5.6060   -2.8130    2.2510 h1        1 MOL     -0.035309
    148 N13         3.3830   -4.5320   -1.6470 n         1 MOL     -0.109477
    149 C50         2.3790   -5.1120   -2.5180 c3        1 MOL     -0.325835
    150 C51         2.4760   -4.5110   -3.9280 c         1 MOL      0.645517
    151 O21         2.4900   -5.2180   -4.9060 o         1 MOL     -0.580339
    152 C52         0.9970   -5.0190   -1.9110 c3        1 MOL      0.146951
    153 C53         0.8010   -6.1040   -0.7970 c3        1 MOL     -0.130906
    154 C54        -0.6100   -6.1720   -0.2790 c         1 MOL      0.674453
    155 O22        -0.9720   -7.0800    0.4330 o         1 MOL     -0.719936
    156 O23        -1.3800   -5.1870   -0.3070 o         1 MOL     -0.719936
    157 H67         3.1390   -3.9020   -0.8910 hn        1 MOL      0.199083
    158 H68         2.5170   -6.1910   -2.5830 h1        1 MOL      0.150607
    159 H69         0.2220   -5.0320   -2.6790 hc        1 MOL     -0.015768
    160 H70         0.8820   -4.0240   -1.4680 hc        1 MOL     -0.015768
    161 H71         1.4270   -5.7780    0.0350 hc        1 MOL      0.016116
    162 H72         1.1440   -7.0920   -1.0960 hc        1 MOL      0.016116
    163 N14         2.5860   -3.2020   -4.1190 n         1 MOL     -0.317823
    164 C55         2.7030   -2.5600   -5.4410 c3        1 MOL     -0.150727
    165 H73         3.7090   -2.1560   -5.5590 h1        1 MOL      0.079369
    166 H74         2.5140   -3.2960   -6.2220 h1        1 MOL      0.079369
    167 H75         1.9760   -1.7520   -5.5180 h1        1 MOL      0.079369
    168 H76         2.6410   -2.6270   -3.3000 hn        1 MOL      0.283721
    169 Ca1        -2.1330   -3.1780    0.9030 Ca        1 MOL      1.750819
    170 O24         0.4650   -3.3370    1.7110 oh        1 MOL     -0.816788
    171 H77         0.9780   -2.6570    1.2680 ho        1 MOL      0.405171
    172 H78         1.0090   -3.6180    2.4450 ho        1 MOL      0.405171
    173 O25        -3.6940   -1.2320   -0.0400 oh        1 MOL     -0.816788
    174 H79        -4.5650   -1.5960   -0.2150 ho        1 MOL      0.405171
    175 H80        -3.8260   -0.2880   -0.0040 ho        1 MOL      0.405171
    176 O26        -3.4030   -3.8480   -1.6540 oh        1 MOL     -0.816788
    177 H81        -2.5550   -3.4370   -1.8000 ho        1 MOL      0.405171
    178 H82        -3.7660   -3.9700   -2.5280 ho        1 MOL      0.405171
    179 O27        -5.0990   -4.0020    1.2490 oh        1 MOL     -0.816788
    180 H83        -5.4200   -4.8100    0.8490 ho        1 MOL      0.405171
    181 H84        -5.7290   -3.8240    1.9530 ho        1 MOL      0.405171
    182 O28        -2.2570   -5.0080    2.7450 oh        1 MOL     -0.816788
    183 H85        -1.7850   -5.3150    3.5160 ho        1 MOL      0.405171
    184 H86        -2.7590   -5.7670    2.4540 ho        1 MOL      0.405171
@<TRIPOS>BOND
     1    1    2 1   
     2    1    4 1   
     3    1    5 1   
     4    1    6 1   
     5    2    3 2   
     6    2    7 1   
     7    7    8 1   
     8    7   15 1   
     9    8    9 1   
    10    8   11 1   
    11    8   16 1   
    12    9   10 2   
    13    9   19 1   
    14   11   12 1   
    15   11   17 1   
    16   11   18 1   
    17   12   13 1   
    18   12   14 1   
    19   19   20 1   
    20   19   24 1   
    21   20   21 1   
    22   20   23 1   
    23   20   25 1   
    24   21   22 2   
    25   21   29 1   
    26   23   26 1   
    27   23   27 1   
    28   23   28 1   
    29   29   30 1   
    30   29   37 1   
    31   30   31 1   
    32   30   33 1   
    33   30   38 1   
    34   31   32 2   
    35   31   41 1   
    36   33   34 1   
    37   33   39 1   
    38   33   40 1   
    39   34   35 1   
    40   34   36 1   
    41   41   42 1   
    42   41   45 1   
    43   42   43 1   
    44   42   46 1   
    45   42   47 1   
    46   43   44 2   
    47   43   48 1   
    48   48   49 1   
    49   48   56 1   
    50   49   50 1   
    51   49   52 1   
    52   49   57 1   
    53   50   51 2   
    54   50   62 1   
    55   52   53 1   
    56   52   58 1   
    57   52   59 1   
    58   53   54 1   
    59   53   55 2   
    60   54   60 1   
    61   54   61 1   
    62   62   63 1   
    63   62   66 1   
    64   63   64 1   
    65   63   67 1   
    66   63   68 1   
    67   64   65 2   
    68   64   69 1   
    69   69   70 1   
    70   69   76 1   
    71   70   71 1   
    72   70   73 1   
    73   70   77 1   
    74   71   72 2   
    75   71   83 1   
    76   73   74 1   
    77   73   75 1   
    78   73   78 1   
    79   74   80 1   
    80   74   81 1   
    81   74   82 1   
    82   75   79 1   
    83   83   84 1   
    84   83   91 1   
    85   84   85 1   
    86   84   87 1   
    87   84   92 1   
    88   85   86 2   
    89   85  102 1   
    90   87   88 1   
    91   87   89 1   
    92   87   93 1   
    93   88   90 1   
    94   88   94 1   
    95   88   95 1   
    96   89   96 1   
    97   89   97 1   
    98   89   98 1   
    99   90   99 1   
   100   90  100 1   
   101   90  101 1   
   102  102  103 1   
   103  102  110 1   
   104  103  104 1   
   105  103  106 1   
   106  103  111 1   
   107  104  105 2   
   108  104  114 1   
   109  106  107 1   
   110  106  112 1   
   111  106  113 1   
   112  107  108 1   
   113  107  109 1   
   114  114  115 1   
   115  114  125 1   
   116  115  116 1   
   117  115  118 1   
   118  115  126 1   
   119  116  117 2   
   120  116  134 1   
   121  118  119 1   
   122  118  127 1   
   123  118  128 1   
   124  119  120 ar  
   125  119  121 ar  
   126  120  122 ar  
   127  120  129 1   
   128  121  123 ar  
   129  121  130 1   
   130  122  124 ar  
   131  122  131 1   
   132  123  124 ar  
   133  123  132 1   
   134  124  133 1   
   135  134  135 1   
   136  134  140 1   
   137  135  136 1   
   138  135  138 1   
   139  135  141 1   
   140  136  137 2   
   141  136  148 1   
   142  138  139 1   
   143  138  142 1   
   144  138  143 1   
   145  139  140 1   
   146  139  144 1   
   147  139  145 1   
   148  140  146 1   
   149  140  147 1   
   150  148  149 1   
   151  148  157 1   
   152  149  150 1   
   153  149  152 1   
   154  149  158 1   
   155  150  151 2   
   156  150  163 1   
   157  152  153 1   
   158  152  159 1   
   159  152  160 1   
   160  153  154 1   
   161  153  161 1   
   162  153  162 1   
   163  154  155 1   
   164  154  156 1   
   165  163  164 1   
   166  163  168 1   
   167  164  165 1   
   168  164  166 1   
   169  164  167 1   
   170  170  171 1   
   171  170  172 1   
   172  173  174 1   
   173  173  175 1   
   174  176  177 1   
   175  176  178 1   
   176  179  180 1   
   177  179  181 1   
   178  182  183 1   
   179  182  184 1   
@<TRIPOS>SUBSTRUCTURE
     1 MOL         1 TEMP              0 ****  ****    0 ROOT
