@<TRIPOS>MOLECULE
MOL
  189   185     1     0     0
SMALL
resp


@<TRIPOS>ATOM
      1 C1          9.2080    1.4220    1.4210 c3        1 MOL     -0.447891
      2 C2          8.1840    0.8470    0.4000 c         1 MOL      0.805268
      3 O1          6.9770    1.0770    0.6620 o         1 MOL     -0.693001
      4 H1          9.8790    2.1130    0.9110 hc        1 MOL      0.108177
      5 H2          8.6760    1.9490    2.2120 hc        1 MOL      0.108177
      6 H3          9.7880    0.6060    1.8530 hc        1 MOL      0.108177
      7 N1          8.6390    0.1770   -0.6130 n         1 MOL     -0.556651
      8 C3          7.8240   -0.2910   -1.7510 c3        1 MOL      0.037090
      9 C4          7.3180   -1.7300   -1.5410 c         1 MOL      0.564396
     10 O2          7.4730   -2.5960   -2.4070 o         1 MOL     -0.493154
     11 C5          8.4790   -0.0160   -3.0930 c3        1 MOL     -0.113426
     12 C6          9.9530   -0.4910   -3.1940 c         1 MOL      0.667233
     13 O3         10.3660   -0.7180   -4.3530 o         1 MOL     -0.633371
     14 O4         10.7600   -0.5640   -2.2510 o         1 MOL     -0.633371
     15 H4          9.6310    0.0160   -0.6540 hn        1 MOL      0.244327
     16 H5          6.9210    0.3210   -1.7240 h1        1 MOL      0.092903
     17 H6          8.3460    1.0270   -3.3780 hc        1 MOL      0.048639
     18 H7          7.8850   -0.5360   -3.8430 hc        1 MOL      0.048639
     19 N2          6.8050   -1.9830   -0.3390 n         1 MOL     -0.424717
     20 C7          6.2500   -3.2200    0.1280 c3        1 MOL      0.300289
     21 C8          4.7730   -3.4420   -0.2270 c         1 MOL      0.436383
     22 O5          4.4310   -4.5110   -0.7580 o         1 MOL     -0.528107
     23 C9          6.4360   -3.4660    1.6780 c3        1 MOL     -0.062995
     24 C10         7.8450   -2.9440    2.0820 c3        1 MOL     -0.139745
     25 C11         8.2940   -3.6190    3.3630 c3        1 MOL     -0.092524
     26 C12         9.6940   -2.9280    3.7720 c3        1 MOL      0.103390
     27 N3         10.4260   -3.4760    4.9110 n4        1 MOL     -0.225201
     28 H8          6.6100   -1.1690    0.2290 hn        1 MOL      0.154618
     29 H9          6.7050   -4.0630   -0.3930 h1        1 MOL      0.007166
     30 H10         6.3670   -4.5300    1.8960 hc        1 MOL      0.037262
     31 H11         5.6870   -2.8660    2.1980 hc        1 MOL      0.037262
     32 H12         7.9720   -1.8660    2.1670 hc        1 MOL      0.075578
     33 H13         8.5570   -3.2830    1.3290 hc        1 MOL      0.075578
     34 H14         8.6150   -4.6590    3.3140 hc        1 MOL      0.056506
     35 H15         7.6090   -3.4190    4.1860 hc        1 MOL      0.056506
     36 H16         9.6520   -1.8400    3.8480 hx        1 MOL      0.046362
     37 H17        10.3180   -2.9820    2.8840 hx        1 MOL      0.046362
     38 H18        10.4600   -4.4820    4.9540 hn        1 MOL      0.244026
     39 H19        11.3420   -3.0580    5.0380 hn        1 MOL      0.244026
     40 H20         9.9930   -3.1970    5.7830 hn        1 MOL      0.244026
     41 N4          3.8400   -2.5500    0.1270 n         1 MOL     -0.509682
     42 C13         3.9080   -1.2360    0.8540 c3        1 MOL      0.311581
     43 C14         3.8560   -0.0870   -0.1320 c         1 MOL      0.275044
     44 O6          3.7270   -0.3460   -1.3570 o         1 MOL     -0.481645
     45 C15         2.9470   -1.2490    2.0680 c3        1 MOL     -0.254193
     46 C16         1.4620   -1.5380    1.6240 c         1 MOL      0.688390
     47 O7          0.7620   -0.6620    1.0730 o         1 MOL     -0.646150
     48 O8          1.1630   -2.7450    1.5240 o         1 MOL     -0.646150
     49 H21         2.9180   -2.8780   -0.1260 hn        1 MOL      0.370531
     50 H22         4.9250   -1.1090    1.2300 h1        1 MOL      0.041453
     51 H23         2.9820   -0.2450    2.4830 hc        1 MOL      0.015736
     52 H24         3.2520   -2.0790    2.7130 hc        1 MOL      0.015736
     53 N5          3.9200    1.1560    0.3130 n         1 MOL     -0.385381
     54 C17         4.0200    2.2900   -0.6240 c3        1 MOL     -0.046530
     55 C18         2.6420    2.8490   -1.1230 c         1 MOL      0.511373
     56 O9          1.5860    2.3280   -0.7230 o         1 MOL     -0.533034
     57 H25         4.2040    1.2370    1.2830 hn        1 MOL      0.329336
     58 H26         4.5990    2.0410   -1.5050 h1        1 MOL      0.111613
     59 H27         4.5920    3.0740   -0.1230 h1        1 MOL      0.111613
     60 N6          2.5920    3.8530   -1.9630 n         1 MOL     -0.504582
     61 C19         1.3840    4.4290   -2.5940 c3        1 MOL      0.341373
     62 C20         1.5960    5.8860   -2.9780 c         1 MOL      0.382489
     63 O10         2.6750    6.3440   -3.3830 o         1 MOL     -0.527574
     64 C21         0.9510    3.7480   -3.8850 c3        1 MOL     -0.122209
     65 C22         0.5560    2.3490   -3.7280 c         1 MOL      0.658741
     66 O11        -0.4600    1.9620   -3.0050 o         1 MOL     -0.675737
     67 O12         1.3160    1.5210   -4.2790 o         1 MOL     -0.675737
     68 H28         3.4880    4.1710   -2.3070 hn        1 MOL      0.279970
     69 H29         0.5110    4.3260   -1.9440 h1        1 MOL     -0.043701
     70 H30         1.7360    3.9220   -4.6250 hc        1 MOL      0.042270
     71 H31         0.1700    4.3470   -4.3430 hc        1 MOL      0.042270
     72 N7          0.5720    6.6670   -2.9940 n         1 MOL     -0.359911
     73 C23        -0.8130    6.5120   -2.5890 c3        1 MOL     -0.049505
     74 C24        -1.0840    6.1980   -1.1020 c         1 MOL      0.553130
     75 O13        -0.2360    6.3300   -0.2520 o         1 MOL     -0.462279
     76 H32         0.7620    7.6470   -3.1680 hn        1 MOL      0.300232
     77 H33        -1.2940    5.7090   -3.1420 h1        1 MOL      0.055068
     78 H34        -1.4060    7.3720   -2.8870 h1        1 MOL      0.055068
     79 N8         -2.3040    5.6580   -0.9020 n         1 MOL     -0.470686
     80 C25        -2.7700    4.9990    0.3210 c3        1 MOL     -0.338356
     81 C26        -1.9020    3.8300    0.8800 c         1 MOL      0.749391
     82 O14        -1.2150    3.1160    0.1450 o         1 MOL     -0.556501
     83 C27        -4.1630    4.4140    0.0380 c3        1 MOL      0.406547
     84 C28        -5.0130    3.9860    1.2220 c3        1 MOL     -0.370150
     85 O15        -4.1130    3.2880   -0.8090 oh        1 MOL     -0.589874
     86 H35        -2.9630    5.7040   -1.6750 hn        1 MOL      0.301435
     87 H36        -2.7340    5.8350    1.0310 h1        1 MOL      0.159824
     88 H37        -4.7670    5.1350   -0.5170 h1        1 MOL      0.022719
     89 H38        -3.5140    3.3790   -1.5520 ho        1 MOL      0.375344
     90 H39        -4.4090    3.2870    1.8000 hc        1 MOL      0.103988
     91 H40        -5.2660    4.8510    1.8430 hc        1 MOL      0.103988
     92 H41        -5.9390    3.5640    0.8360 hc        1 MOL      0.103988
     93 N9         -1.8420    3.6530    2.2110 n         1 MOL     -0.554543
     94 C29        -1.0820    2.6470    2.9560 c3        1 MOL      0.140800
     95 C30        -1.7070    1.2320    2.7750 c         1 MOL      0.545905
     96 O16        -1.8710    0.7220    1.6420 o         1 MOL     -0.572202
     97 C31         0.4240    2.6300    2.6760 c3        1 MOL      0.328412
     98 C32         1.1150    4.0410    2.6410 c3        1 MOL     -0.157040
     99 C33         1.1480    1.6280    3.4490 c3        1 MOL     -0.394941
    100 C34         1.3380    4.7020    3.9930 c3        1 MOL     -0.090999
    101 H42        -2.4990    4.1720    2.7910 hn        1 MOL      0.269379
    102 H43        -1.2500    2.8700    4.0030 h1        1 MOL      0.028386
    103 H44         0.5630    2.3240    1.6440 hc        1 MOL     -0.139704
    104 H45         0.6410    4.7710    1.9890 hc        1 MOL      0.083607
    105 H46         2.1020    3.8040    2.2520 hc        1 MOL      0.083607
    106 H47         0.8600    0.6050    3.1590 hc        1 MOL      0.086261
    107 H48         2.1740    1.7410    3.1090 hc        1 MOL      0.086261
    108 H49         1.0190    1.7290    4.5310 hc        1 MOL      0.086261
    109 H50         2.0680    5.5110    3.9020 hc        1 MOL      0.014810
    110 H51         0.3470    5.0780    4.2520 hc        1 MOL      0.014810
    111 H52         1.5400    4.0280    4.8260 hc        1 MOL      0.014810
    112 N10        -2.1660    0.5950    3.8940 n         1 MOL     -0.522863
    113 C35        -2.6350   -0.8020    3.9830 c3        1 MOL     -0.146968
    114 C36        -3.8290   -1.2420    3.2210 c         1 MOL      0.403328
    115 O17        -4.0410   -2.4350    3.0640 o         1 MOL     -0.518198
    116 C37        -2.8950   -1.2130    5.4840 c3        1 MOL      0.431477
    117 C38        -4.0430   -0.4480    6.2090 c3        1 MOL     -0.078754
    118 O18        -1.7720   -0.9750    6.2980 oh        1 MOL     -0.624314
    119 H53        -2.0950    1.0990    4.7600 hn        1 MOL      0.284063
    120 H54        -1.7660   -1.4030    3.7050 h1        1 MOL      0.131444
    121 H55        -3.1240   -2.2840    5.5530 h1        1 MOL      0.008590
    122 H56        -1.0600   -1.5760    6.0600 ho        1 MOL      0.393953
    123 H57        -4.9620   -0.7430    5.7090 hc        1 MOL      0.013670
    124 H58        -3.9790   -0.6760    7.2680 hc        1 MOL      0.013670
    125 H59        -4.0480    0.6400    6.0600 hc        1 MOL      0.013670
    126 N11        -4.6700   -0.2550    2.8320 n         1 MOL      0.009467
    127 C39        -6.0400   -0.5760    2.2690 c3        1 MOL     -0.297930
    128 C40        -5.9290   -0.9860    0.7700 c         1 MOL      0.553667
    129 O19        -5.1840   -0.3210   -0.0040 o         1 MOL     -0.545807
    130 C41        -6.9660    0.6800    2.3740 c3        1 MOL      0.497666
    131 C42        -8.2680    0.6180    1.5800 c3        1 MOL     -0.342296
    132 O20        -7.2540    0.8810    3.7060 oh        1 MOL     -0.614345
    133 H60        -4.4020    0.7110    2.9270 hn        1 MOL      0.129119
    134 H61        -6.4290   -1.4210    2.8320 h1        1 MOL      0.126795
    135 H62        -6.3960    1.5280    1.9820 h1        1 MOL     -0.054866
    136 H63        -6.4820    1.3130    4.0920 ho        1 MOL      0.367633
    137 H64        -8.0080    0.3810    0.5470 hc        1 MOL      0.099366
    138 H65        -8.8530   -0.2270    1.9390 hc        1 MOL      0.099366
    139 H66        -8.7610    1.5920    1.7080 hc        1 MOL      0.099366
    140 N12        -6.6150   -2.0540    0.3590 n         1 MOL     -0.485615
    141 C43        -6.6850   -2.5750   -1.0710 c3        1 MOL      0.264406
    142 C44        -5.3480   -2.7100   -1.7500 c         1 MOL      0.475290
    143 O21        -5.1640   -2.1530   -2.8330 o         1 MOL     -0.536057
    144 C45        -7.7630   -1.8400   -1.8210 c3        1 MOL     -0.408644
    145 C46        -9.1880   -2.0240   -1.2560 c3        1 MOL     -0.032543
    146 C47       -10.2830   -1.4220   -2.2410 c3        1 MOL      0.001369
    147 C48       -11.6430   -1.7840   -1.6630 c3        1 MOL     -0.053316
    148 N13       -12.7020   -0.9520   -2.2380 n4        1 MOL     -0.072102
    149 H67        -6.9980   -2.6250    1.0980 hn        1 MOL      0.273643
    150 H68        -6.9950   -3.6210   -0.9780 h1        1 MOL      0.030609
    151 H69        -7.7890   -2.4270   -2.7440 hc        1 MOL      0.148822
    152 H70        -7.5700   -0.8050   -2.1040 hc        1 MOL      0.148822
    153 H71        -9.2930   -1.4870   -0.3050 hc        1 MOL      0.037022
    154 H72        -9.3570   -3.0950   -1.2100 hc        1 MOL      0.037022
    155 H73       -10.2740   -1.9310   -3.2000 hc        1 MOL      0.049306
    156 H74       -10.0520   -0.3870   -2.4860 hc        1 MOL      0.049306
    157 H75       -11.6630   -1.5220   -0.6060 hx        1 MOL      0.077551
    158 H76       -11.7790   -2.8440   -1.8690 hx        1 MOL      0.077551
    159 H77       -13.0160   -1.3130   -3.1350 hn        1 MOL      0.164708
    160 H78       -13.5500   -1.0260   -1.7000 hn        1 MOL      0.164708
    161 H79       -12.3910    0.0130   -2.3230 hn        1 MOL      0.164708
    162 N14        -4.3110   -3.2610   -1.0890 n         1 MOL     -0.459276
    163 C49        -2.9610   -3.4010   -1.7110 c3        1 MOL      0.420738
    164 C50        -1.8540   -2.8250   -0.7980 c         1 MOL      0.256655
    165 O22        -1.3570   -1.7560   -1.1210 o         1 MOL     -0.519859
    166 C51        -2.7990   -4.7660   -2.2010 c3        1 MOL     -0.117101
    167 C52        -3.5240   -4.9520   -3.6070 c3        1 MOL     -0.276155
    168 C53        -3.4030   -6.3510   -4.2090 c         1 MOL      0.650900
    169 O23        -2.5650   -6.5410   -5.1570 o         1 MOL     -0.594370
    170 O24        -3.9760   -7.3790   -3.7450 o         1 MOL     -0.594370
    171 H80        -4.5270   -3.6730   -0.2020 hn        1 MOL      0.246927
    172 H81        -2.9030   -2.7560   -2.5880 h1        1 MOL      0.033826
    173 H82        -3.1070   -5.4650   -1.4320 hc        1 MOL      0.060037
    174 H83        -1.7240   -4.8170   -2.3830 hc        1 MOL      0.060037
    175 H84        -3.1080   -4.2240   -4.3080 hc        1 MOL      0.076811
    176 H85        -4.5700   -4.6670   -3.4620 hc        1 MOL      0.076811
    177 N15        -1.4230   -3.3980    0.3410 n         1 MOL     -0.219518
    178 C54        -1.7250   -4.7480    0.9820 c3        1 MOL      0.016630
    179 H86        -2.7580   -5.0260    0.7730 h1        1 MOL      0.027283
    180 H87        -1.0560   -5.5050    0.5700 h1        1 MOL      0.027283
    181 H88        -1.5790   -4.6800    2.0600 h1        1 MOL      0.027283
    182 H89        -0.7120   -2.8630    0.8210 hn        1 MOL      0.258834
    183 Ca1        -0.4650    0.6200   -0.6240 Ca        1 MOL      1.713893
    184 O25         1.2750   -0.4420   -2.4470 oh        1 MOL     -0.995941
    185 H90         2.1780   -0.6420   -2.1990 ho        1 MOL      0.478321
    186 H91         1.3510    0.1280   -3.2080 ho        1 MOL      0.478321
    187 O26        -2.9860    0.5820   -1.3660 oh        1 MOL     -0.995941
    188 H92        -3.4340    0.4390   -2.2040 ho        1 MOL      0.478321
    189 H93        -3.6880    0.5430   -0.7120 ho        1 MOL      0.478321
@<TRIPOS>BOND
     1    1    2 1   
     2    1    4 1   
     3    1    5 1   
     4    1    6 1   
     5    2    3 2   
     6    2    7 1   
     7    7    8 1   
     8    7   15 1   
     9    8    9 1   
    10    8   11 1   
    11    8   16 1   
    12    9   10 2   
    13    9   19 1   
    14   11   12 1   
    15   11   17 1   
    16   11   18 1   
    17   12   13 1   
    18   12   14 1   
    19   19   20 1   
    20   19   28 1   
    21   20   21 1   
    22   20   23 1   
    23   20   29 1   
    24   21   22 2   
    25   21   41 1   
    26   23   24 1   
    27   23   30 1   
    28   23   31 1   
    29   24   25 1   
    30   24   32 1   
    31   24   33 1   
    32   25   26 1   
    33   25   34 1   
    34   25   35 1   
    35   26   27 1   
    36   26   36 1   
    37   26   37 1   
    38   27   38 1   
    39   27   39 1   
    40   27   40 1   
    41   41   42 1   
    42   41   49 1   
    43   42   43 1   
    44   42   45 1   
    45   42   50 1   
    46   43   44 2   
    47   43   53 1   
    48   45   46 1   
    49   45   51 1   
    50   45   52 1   
    51   46   47 1   
    52   46   48 1   
    53   53   54 1   
    54   53   57 1   
    55   54   55 1   
    56   54   58 1   
    57   54   59 1   
    58   55   56 2   
    59   55   60 1   
    60   60   61 1   
    61   60   68 1   
    62   61   62 1   
    63   61   64 1   
    64   61   69 1   
    65   62   63 2   
    66   62   72 1   
    67   64   65 1   
    68   64   70 1   
    69   64   71 1   
    70   65   66 1   
    71   65   67 1   
    72   72   73 1   
    73   72   76 1   
    74   73   74 1   
    75   73   77 1   
    76   73   78 1   
    77   74   75 2   
    78   74   79 1   
    79   79   80 1   
    80   79   86 1   
    81   80   81 1   
    82   80   83 1   
    83   80   87 1   
    84   81   82 2   
    85   81   93 1   
    86   83   84 1   
    87   83   85 1   
    88   83   88 1   
    89   84   90 1   
    90   84   91 1   
    91   84   92 1   
    92   85   89 1   
    93   93   94 1   
    94   93  101 1   
    95   94   95 1   
    96   94   97 1   
    97   94  102 1   
    98   95   96 2   
    99   95  112 1   
   100   97   98 1   
   101   97   99 1   
   102   97  103 1   
   103   98  100 1   
   104   98  104 1   
   105   98  105 1   
   106   99  106 1   
   107   99  107 1   
   108   99  108 1   
   109  100  109 1   
   110  100  110 1   
   111  100  111 1   
   112  112  113 1   
   113  112  119 1   
   114  113  114 1   
   115  113  116 1   
   116  113  120 1   
   117  114  115 2   
   118  114  126 1   
   119  116  117 1   
   120  116  118 1   
   121  116  121 1   
   122  117  123 1   
   123  117  124 1   
   124  117  125 1   
   125  118  122 1   
   126  126  127 1   
   127  126  133 1   
   128  127  128 1   
   129  127  130 1   
   130  127  134 1   
   131  128  129 2   
   132  128  140 1   
   133  130  131 1   
   134  130  132 1   
   135  130  135 1   
   136  131  137 1   
   137  131  138 1   
   138  131  139 1   
   139  132  136 1   
   140  140  141 1   
   141  140  149 1   
   142  141  142 1   
   143  141  144 1   
   144  141  150 1   
   145  142  143 2   
   146  142  162 1   
   147  144  145 1   
   148  144  151 1   
   149  144  152 1   
   150  145  146 1   
   151  145  153 1   
   152  145  154 1   
   153  146  147 1   
   154  146  155 1   
   155  146  156 1   
   156  147  148 1   
   157  147  157 1   
   158  147  158 1   
   159  148  159 1   
   160  148  160 1   
   161  148  161 1   
   162  162  163 1   
   163  162  171 1   
   164  163  164 1   
   165  163  166 1   
   166  163  172 1   
   167  164  165 2   
   168  164  177 1   
   169  166  167 1   
   170  166  173 1   
   171  166  174 1   
   172  167  168 1   
   173  167  175 1   
   174  167  176 1   
   175  168  169 1   
   176  168  170 1   
   177  177  178 1   
   178  177  182 1   
   179  178  179 1   
   180  178  180 1   
   181  178  181 1   
   182  184  185 1   
   183  184  186 1   
   184  187  188 1   
   185  187  189 1   
@<TRIPOS>SUBSTRUCTURE
     1 MOL         1 TEMP              0 ****  ****    0 ROOT
