@<TRIPOS>MOLECULE
MOL
  178   175     1     0     0
SMALL
resp


@<TRIPOS>ATOM
      1 C1         -5.9160    8.3210    1.9260 c3        1 MOL     -0.346176
      2 C2         -6.7560    7.6280    0.7970 c         1 MOL      0.717708
      3 O1         -6.9420    8.2520   -0.2400 o         1 MOL     -0.566510
      4 H1         -5.6980    9.3480    1.6370 hc        1 MOL      0.078657
      5 H2         -6.4850    8.3190    2.8560 hc        1 MOL      0.078657
      6 H3         -4.9820    7.7780    2.0700 hc        1 MOL      0.078657
      7 N1         -7.2320    6.3660    1.0080 n         1 MOL     -0.715919
      8 C3         -7.9550    5.4640    0.0850 c3        1 MOL      0.364231
      9 C4         -7.2090    4.1570   -0.2090 c         1 MOL      0.530518
     10 O2         -7.6930    3.0530   -0.1180 o         1 MOL     -0.544034
     11 C5         -9.3860    5.3380    0.6610 c3        1 MOL     -0.113743
     12 C6        -10.2850    4.6620   -0.2900 c         1 MOL      0.652189
     13 O3        -10.3370    5.0830   -1.5140 o         1 MOL     -0.719323
     14 O4        -11.1090    3.8660    0.2160 o         1 MOL     -0.719323
     15 H4         -7.1850    6.0830    1.9800 hn        1 MOL      0.310635
     16 H5         -8.1120    5.8960   -0.8950 h1        1 MOL     -0.031342
     17 H6         -9.7210    6.3370    0.9300 hc        1 MOL      0.004791
     18 H7         -9.3190    4.7620    1.5820 hc        1 MOL      0.004791
     19 N2         -5.9480    4.2410   -0.5840 n         1 MOL     -0.620314
     20 C7         -5.3130    3.2210   -1.3540 c3        1 MOL      0.358741
     21 C8         -4.4900    2.3230   -0.3780 c         1 MOL      0.473748
     22 O5         -3.4850    2.7770    0.2210 o         1 MOL     -0.599903
     23 C9         -4.4530    3.8870   -2.4870 c3        1 MOL     -0.431197
     24 H8         -5.5430    5.1690   -0.5260 hn        1 MOL      0.317344
     25 H9         -6.0500    2.5120   -1.7500 h1        1 MOL      0.049629
     26 H10        -3.5980    4.4140   -2.0590 hc        1 MOL      0.121501
     27 H11        -4.3230    3.1630   -3.2920 hc        1 MOL      0.121501
     28 H12        -5.0890    4.6800   -2.8790 hc        1 MOL      0.121501
     29 N3         -4.5700    1.0140   -0.3010 n         1 MOL     -0.267545
     30 C10        -5.5130    0.0770   -0.9810 c3        1 MOL     -0.176713
     31 C11        -5.6950   -1.2150   -0.0880 c         1 MOL      0.489975
     32 O6         -4.9650   -1.4720    0.8060 o         1 MOL     -0.498002
     33 C12        -5.0520   -0.2900   -2.4540 c3        1 MOL     -0.028614
     34 C13        -3.6130   -0.4970   -2.6650 c         1 MOL      0.645420
     35 O7         -3.1470   -0.0130   -3.7660 o         1 MOL     -0.704602
     36 O8         -2.8290   -0.9360   -1.7610 o         1 MOL     -0.704602
     37 H13        -3.9810    0.4510    0.2990 hn        1 MOL      0.277288
     38 H14        -6.4930    0.5280   -1.1110 h1        1 MOL      0.096554
     39 H15        -5.3780    0.5730   -3.0270 hc        1 MOL      0.029099
     40 H16        -5.6350   -1.0900   -2.9110 hc        1 MOL      0.029099
     41 N4         -6.7380   -2.0070   -0.4170 n         1 MOL     -0.344856
     42 C14        -6.9700   -3.3250    0.1730 c3        1 MOL      0.040256
     43 C15        -6.9940   -4.4810   -0.8740 c         1 MOL      0.506993
     44 O9         -8.0330   -4.8670   -1.3710 o         1 MOL     -0.529065
     45 H17        -7.2750   -1.6320   -1.1770 hn        1 MOL      0.272064
     46 H18        -7.9360   -3.1920    0.6510 h1        1 MOL      0.042265
     47 H19        -6.2740   -3.4860    0.9950 h1        1 MOL      0.042265
     48 N5         -5.8460   -5.1670   -0.9720 n         1 MOL     -0.511177
     49 C16        -4.5110   -4.5900   -0.6740 c3        1 MOL      0.306514
     50 C17        -3.9630   -4.9810    0.7090 c         1 MOL      0.365900
     51 O10        -3.6840   -6.1840    0.9360 o         1 MOL     -0.551521
     52 C18        -3.5480   -4.9950   -1.8090 c3        1 MOL     -0.332790
     53 C19        -2.1600   -4.3470   -1.7130 c         1 MOL      0.847313
     54 N6         -1.3290   -4.6160   -2.6650 n         1 MOL     -0.819095
     55 O11        -1.7600   -3.6330   -0.8090 o         1 MOL     -0.803418
     56 H20        -5.8250   -5.9820   -1.5660 hn        1 MOL      0.310713
     57 H21        -4.6600   -3.5040   -0.6910 h1        1 MOL      0.004262
     58 H22        -4.0650   -4.6770   -2.7180 hc        1 MOL      0.087127
     59 H23        -3.4280   -6.0790   -1.7710 hc        1 MOL      0.087127
     60 H24        -1.4630   -5.3510   -3.3560 hn        1 MOL      0.360268
     61 H25        -0.3870   -4.2450   -2.6600 hn        1 MOL      0.360268
     62 N7         -3.7710   -4.0730    1.6310 n         1 MOL     -0.178737
     63 C20        -3.2990   -4.3770    3.0220 c3        1 MOL     -0.257594
     64 C21        -1.8090   -4.4620    3.1070 c         1 MOL      0.672210
     65 O12        -1.1550   -3.8920    3.9290 o         1 MOL     -0.555761
     66 H26        -3.8880   -3.1210    1.3240 hn        1 MOL      0.281876
     67 H27        -3.6880   -5.2770    3.5050 h1        1 MOL      0.109915
     68 H28        -3.5770   -3.5340    3.6590 h1        1 MOL      0.109915
     69 N8         -1.1960   -5.1720    2.1110 n         1 MOL     -0.544027
     70 C22         0.2740   -5.2740    2.0300 c3        1 MOL      0.071568
     71 C23         0.9890   -3.8890    1.7780 c         1 MOL      0.438303
     72 O13         0.4030   -2.9670    1.1380 o         1 MOL     -0.436901
     73 C24         0.7420   -6.2950    0.9460 c3        1 MOL      0.224163
     74 C25         0.3320   -7.6540    1.3700 c3        1 MOL     -0.379710
     75 O14         0.0200   -6.0050   -0.2970 oh        1 MOL     -0.496975
     76 H29        -1.7790   -5.7130    1.4820 hn        1 MOL      0.335710
     77 H30         0.6370   -5.4860    3.0360 h1        1 MOL      0.033230
     78 H31         1.8110   -6.2220    0.6970 h1        1 MOL      0.073605
     79 H32         0.3950   -5.1730   -0.5890 ho        1 MOL      0.361390
     80 H33        -0.7440   -7.8360    1.2760 hc        1 MOL      0.099193
     81 H34         0.8590   -8.4280    0.8230 hc        1 MOL      0.099193
     82 H35         0.6160   -7.8090    2.4190 hc        1 MOL      0.099193
     83 N9          2.2770   -3.8670    2.2520 n         1 MOL     -0.389268
     84 C26         3.1080   -2.6660    2.0010 c3        1 MOL      0.229005
     85 C27         3.9590   -2.9300    0.6790 c         1 MOL      0.171976
     86 O15         4.8680   -3.7790    0.6600 o         1 MOL     -0.559040
     87 C28         4.0470   -2.4080    3.2550 c3        1 MOL     -0.011495
     88 C29         5.0640   -1.2420    2.8230 c3        1 MOL      0.073386
     89 C30         3.1210   -1.9530    4.4660 c3        1 MOL     -0.351157
     90 C31         5.7500   -0.6470    3.9810 c3        1 MOL     -0.237081
     91 H36         2.7140   -4.7180    2.5820 hn        1 MOL      0.245886
     92 H37         2.4910   -1.8070    1.7330 h1        1 MOL      0.076891
     93 H38         4.6720   -3.2610    3.5090 hc        1 MOL      0.035871
     94 H39         4.3740   -0.4470    2.5170 hc        1 MOL      0.046058
     95 H40         5.7380   -1.6320    2.0620 hc        1 MOL      0.046058
     96 H41         2.3130   -1.2810    4.1900 hc        1 MOL      0.091249
     97 H42         2.4910   -2.7650    4.8040 hc        1 MOL      0.091249
     98 H43         3.7080   -1.6160    5.3200 hc        1 MOL      0.091249
     99 H44         6.6600   -0.0980    3.7400 hc        1 MOL      0.047585
    100 H45         5.1700    0.0140    4.6290 hc        1 MOL      0.047585
    101 H46         6.1150   -1.5030    4.5510 hc        1 MOL      0.047585
    102 N10         3.6360   -2.3460   -0.5150 n         1 MOL      0.022073
    103 C32         4.2360   -2.6160   -1.8010 c3        1 MOL      0.410897
    104 C33         5.3070   -1.6640   -2.1660 c         1 MOL      0.418443
    105 O16         5.5710   -1.5740   -3.3950 o         1 MOL     -0.554748
    106 C34         3.0610   -2.6400   -2.7940 c3        1 MOL     -0.628328
    107 C35         1.8060   -3.3900   -2.3500 c         1 MOL      0.859822
    108 O17         1.8270   -4.6410   -2.2640 o         1 MOL     -0.706878
    109 O18         0.8050   -2.6860   -2.0210 o         1 MOL     -0.706878
    110 H47         2.7990   -1.7930   -0.3950 hn        1 MOL     -0.064925
    111 H48         4.7460   -3.5840   -1.8460 h1        1 MOL      0.009509
    112 H49         3.4700   -3.2700   -3.5950 hc        1 MOL      0.144101
    113 H50         2.9790   -1.6050   -3.1040 hc        1 MOL      0.144101
    114 N11         5.8540   -0.9040   -1.2270 n         1 MOL     -0.429143
    115 C36         6.5850    0.3320   -1.5040 c3        1 MOL      0.247677
    116 C37         6.3760    1.5220   -0.4910 c         1 MOL      0.472477
    117 O19         6.3610    1.2870    0.7100 o         1 MOL     -0.559966
    118 C38         8.1220   -0.0850   -1.6060 c3        1 MOL     -0.340304
    119 C39         9.1450    0.9970   -1.7650 ca        1 MOL      0.166840
    120 C40         9.6230    1.6130   -0.6040 ca        1 MOL     -0.219316
    121 C41         9.4360    1.4730   -3.0350 ca        1 MOL     -0.219316
    122 C42        10.4150    2.6970   -0.7200 ca        1 MOL     -0.049137
    123 C43        10.1790    2.6640   -3.1310 ca        1 MOL     -0.049137
    124 C44        10.6620    3.2590   -1.9710 ca        1 MOL     -0.164849
    125 H51         5.4420   -1.0450   -0.3130 hn        1 MOL      0.184060
    126 H52         6.2140    0.7160   -2.4620 h1        1 MOL      0.002350
    127 H53         8.2620   -0.7640   -2.4400 hc        1 MOL      0.124832
    128 H54         8.3660   -0.6380   -0.6960 hc        1 MOL      0.124832
    129 H55         9.2600    1.2820    0.3570 ha        1 MOL      0.135202
    130 H56         8.9690    1.0780   -3.9310 ha        1 MOL      0.135202
    131 H57        10.8570    3.0710    0.1950 ha        1 MOL      0.093458
    132 H58        10.4070    3.1260   -4.0800 ha        1 MOL      0.093458
    133 H59        11.3160    4.1150   -1.8950 ha        1 MOL      0.098763
    134 N12         6.3920    2.8070   -0.9150 n         1 MOL      0.061914
    135 C45         6.6490    3.9960   -0.0670 c3        1 MOL     -0.108167
    136 C46         5.4440    4.5210    0.7370 c         1 MOL      0.451628
    137 O20         5.4680    5.5820    1.3150 o         1 MOL     -0.504592
    138 C47         7.1070    5.0840   -1.0390 c3        1 MOL     -0.033730
    139 C48         6.4070    4.7260   -2.3390 c3        1 MOL     -0.024593
    140 C49         6.3360    3.1800   -2.3040 c3        1 MOL     -0.165519
    141 H60         7.4060    3.7520    0.6810 h1        1 MOL      0.074919
    142 H61         6.8170    6.0580   -0.6400 hc        1 MOL      0.030403
    143 H62         8.1810    4.9480   -1.1810 hc        1 MOL      0.030403
    144 H63         5.4350    5.2160   -2.4090 hc        1 MOL      0.031484
    145 H64         7.0660    5.0000   -3.1690 hc        1 MOL      0.031484
    146 H65         5.4440    2.8680   -2.8320 h1        1 MOL      0.082238
    147 H66         7.2500    2.8240   -2.7870 h1        1 MOL      0.082238
    148 N13         4.3210    3.7410    0.7170 n         1 MOL     -0.051847
    149 C50         3.0890    4.0800    1.2730 c3        1 MOL     -0.392260
    150 C51         3.1190    4.3910    2.7570 c         1 MOL      0.607056
    151 O21         2.3760    5.2210    3.2820 o         1 MOL     -0.527886
    152 C52         2.0570    3.1070    0.7920 c3        1 MOL      0.078630
    153 C53         2.3190    1.6640    1.4110 c3        1 MOL      0.133053
    154 C54         1.4350    0.5010    0.9540 c         1 MOL      0.489176
    155 O22         1.7670   -0.1850   -0.0510 o         1 MOL     -0.642241
    156 O23         0.3460    0.1770    1.5130 o         1 MOL     -0.642241
    157 H67         4.4060    2.8500    0.2530 hn        1 MOL      0.062180
    158 H68         2.8190    5.0020    0.7620 h1        1 MOL      0.146353
    159 H69         2.0720    3.1640   -0.3030 hc        1 MOL      0.036269
    160 H70         1.1190    3.5330    1.1380 hc        1 MOL      0.036269
    161 H71         2.1450    1.7400    2.4840 hc        1 MOL     -0.043417
    162 H72         3.3550    1.5060    1.1270 hc        1 MOL     -0.043417
    163 N14         4.0990    3.8410    3.5560 n         1 MOL     -0.235229
    164 C55         4.3180    4.2830    4.9090 c3        1 MOL     -0.226634
    165 H73         5.0800    3.6570    5.3760 h1        1 MOL      0.092765
    166 H74         4.6550    5.3200    4.9040 h1        1 MOL      0.092765
    167 H75         3.3890    4.2050    5.4730 h1        1 MOL      0.092765
    168 H76         4.7560    3.1650    3.2060 hn        1 MOL      0.216817
    169 Ca1        -0.6220   -1.1250   -0.5960 Ca        1 MOL      1.758920
    170 O24        -1.1140    1.5570   -0.4720 oh        1 MOL     -0.854435
    171 H77        -1.8220    1.7810    0.1200 ho        1 MOL      0.405173
    172 H78        -0.9950    2.3410   -1.0130 ho        1 MOL      0.405173
    173 O25        -0.3950    0.1390   -3.0470 oh        1 MOL     -0.854435
    174 H79        -1.3380    0.3020   -3.1220 ho        1 MOL      0.405173
    175 H80        -0.1330   -0.1640   -3.9180 ho        1 MOL      0.405173
    176 O26        -2.4720   -0.7980    1.2660 oh        1 MOL     -0.854435
    177 H81        -3.4100   -0.9580    1.4220 ho        1 MOL      0.405173
    178 H82        -2.0900   -0.7820    2.1460 ho        1 MOL      0.405173
@<TRIPOS>BOND
     1    1    2 1   
     2    1    4 1   
     3    1    5 1   
     4    1    6 1   
     5    2    3 2   
     6    2    7 1   
     7    7    8 1   
     8    7   15 1   
     9    8    9 1   
    10    8   11 1   
    11    8   16 1   
    12    9   10 2   
    13    9   19 1   
    14   11   12 1   
    15   11   17 1   
    16   11   18 1   
    17   12   13 1   
    18   12   14 1   
    19   19   20 1   
    20   19   24 1   
    21   20   21 1   
    22   20   23 1   
    23   20   25 1   
    24   21   22 2   
    25   21   29 1   
    26   23   26 1   
    27   23   27 1   
    28   23   28 1   
    29   29   30 1   
    30   29   37 1   
    31   30   31 1   
    32   30   33 1   
    33   30   38 1   
    34   31   32 2   
    35   31   41 1   
    36   33   34 1   
    37   33   39 1   
    38   33   40 1   
    39   34   35 1   
    40   34   36 1   
    41   41   42 1   
    42   41   45 1   
    43   42   43 1   
    44   42   46 1   
    45   42   47 1   
    46   43   44 2   
    47   43   48 1   
    48   48   49 1   
    49   48   56 1   
    50   49   50 1   
    51   49   52 1   
    52   49   57 1   
    53   50   51 2   
    54   50   62 1   
    55   52   53 1   
    56   52   58 1   
    57   52   59 1   
    58   53   54 1   
    59   53   55 2   
    60   54   60 1   
    61   54   61 1   
    62   62   63 1   
    63   62   66 1   
    64   63   64 1   
    65   63   67 1   
    66   63   68 1   
    67   64   65 2   
    68   64   69 1   
    69   69   70 1   
    70   69   76 1   
    71   70   71 1   
    72   70   73 1   
    73   70   77 1   
    74   71   72 2   
    75   71   83 1   
    76   73   74 1   
    77   73   75 1   
    78   73   78 1   
    79   74   80 1   
    80   74   81 1   
    81   74   82 1   
    82   75   79 1   
    83   83   84 1   
    84   83   91 1   
    85   84   85 1   
    86   84   87 1   
    87   84   92 1   
    88   85   86 2   
    89   85  102 1   
    90   87   88 1   
    91   87   89 1   
    92   87   93 1   
    93   88   90 1   
    94   88   94 1   
    95   88   95 1   
    96   89   96 1   
    97   89   97 1   
    98   89   98 1   
    99   90   99 1   
   100   90  100 1   
   101   90  101 1   
   102  102  103 1   
   103  102  110 1   
   104  103  104 1   
   105  103  106 1   
   106  103  111 1   
   107  104  105 2   
   108  104  114 1   
   109  106  107 1   
   110  106  112 1   
   111  106  113 1   
   112  107  108 1   
   113  107  109 1   
   114  114  115 1   
   115  114  125 1   
   116  115  116 1   
   117  115  118 1   
   118  115  126 1   
   119  116  117 2   
   120  116  134 1   
   121  118  119 1   
   122  118  127 1   
   123  118  128 1   
   124  119  120 ar  
   125  119  121 ar  
   126  120  122 ar  
   127  120  129 1   
   128  121  123 ar  
   129  121  130 1   
   130  122  124 ar  
   131  122  131 1   
   132  123  124 ar  
   133  123  132 1   
   134  124  133 1   
   135  134  135 1   
   136  134  140 1   
   137  135  136 1   
   138  135  138 1   
   139  135  141 1   
   140  136  137 2   
   141  136  148 1   
   142  138  139 1   
   143  138  142 1   
   144  138  143 1   
   145  139  140 1   
   146  139  144 1   
   147  139  145 1   
   148  140  146 1   
   149  140  147 1   
   150  148  149 1   
   151  148  157 1   
   152  149  150 1   
   153  149  152 1   
   154  149  158 1   
   155  150  151 2   
   156  150  163 1   
   157  152  153 1   
   158  152  159 1   
   159  152  160 1   
   160  153  154 1   
   161  153  161 1   
   162  153  162 1   
   163  154  155 1   
   164  154  156 1   
   165  163  164 1   
   166  163  168 1   
   167  164  165 1   
   168  164  166 1   
   169  164  167 1   
   170  170  171 1   
   171  170  172 1   
   172  173  174 1   
   173  173  175 1   
   174  176  177 1   
   175  176  178 1   
@<TRIPOS>SUBSTRUCTURE
     1 MOL         1 TEMP              0 ****  ****    0 ROOT
