@<TRIPOS>MOLECULE
MOL
  198   191     1     0     0
SMALL
resp


@<TRIPOS>ATOM
      1 C1          4.0720   -2.9950   -4.0760 c3        1 MOL     -0.241291
      2 C2          3.2460   -2.9720   -2.7540 c         1 MOL      0.697313
      3 O1          2.4340   -2.0780   -2.6250 o         1 MOL     -0.576557
      4 H1          4.9480   -3.6300   -3.9470 hc        1 MOL      0.050176
      5 H2          3.4550   -3.3890   -4.8840 hc        1 MOL      0.050176
      6 H3          4.3920   -1.9830   -4.3230 hc        1 MOL      0.050176
      7 N1          3.2710   -3.9690   -1.9280 n         1 MOL     -0.365206
      8 C3          2.5780   -3.8830   -0.5610 c3        1 MOL     -0.151001
      9 C4          1.0340   -3.8910   -0.4740 c         1 MOL      0.569949
     10 O2          0.4200   -3.7630    0.5800 o         1 MOL     -0.540409
     11 C5          3.2130   -2.7910    0.2910 c3        1 MOL     -0.168721
     12 C6          4.7320   -2.9190    0.4470 c         1 MOL      0.593497
     13 O3          5.2780   -3.7680    1.2250 o         1 MOL     -0.725272
     14 O4          5.4960   -2.0830   -0.1340 o         1 MOL     -0.725272
     15 H4          3.9240   -4.7120   -2.1280 hn        1 MOL      0.226155
     16 H5          2.8020   -4.8060   -0.0260 h1        1 MOL      0.132030
     17 H6          2.7870   -2.8470    1.2900 hc        1 MOL      0.105573
     18 H7          3.0380   -1.8110   -0.1660 hc        1 MOL      0.105573
     19 N2          0.4200   -4.2150   -1.5530 n         1 MOL     -0.242436
     20 C7         -1.0260   -4.3420   -1.7960 c3        1 MOL     -0.223239
     21 C8         -1.6160   -5.4490   -0.9110 c         1 MOL      0.354996
     22 O5         -0.8840   -6.3550   -0.4460 o         1 MOL     -0.532439
     23 C9         -1.3350   -4.4720   -3.3330 c3        1 MOL      0.232923
     24 C10        -0.9310   -5.8360   -3.9600 c3        1 MOL      0.122985
     25 C11        -0.6480   -3.3590   -4.1500 c3        1 MOL     -0.497232
     26 C12        -1.2710   -6.0820   -5.4090 c3        1 MOL     -0.311102
     27 H8          1.0020   -4.3230   -2.3660 hn        1 MOL      0.144572
     28 H9         -1.5630   -3.4640   -1.4480 h1        1 MOL      0.141508
     29 H10        -2.4270   -4.4190   -3.3670 hc        1 MOL      0.018192
     30 H11        -1.4020   -6.5460   -3.2770 hc        1 MOL     -0.014036
     31 H12         0.1450   -6.0030   -3.8800 hc        1 MOL     -0.014036
     32 H13        -0.3200   -2.5610   -3.4660 hc        1 MOL      0.145019
     33 H14         0.2670   -3.7400   -4.5980 hc        1 MOL      0.145019
     34 H15        -1.3550   -3.0350   -4.9030 hc        1 MOL      0.145019
     35 H16        -0.9340   -5.3170   -6.1010 hc        1 MOL      0.066507
     36 H17        -0.7900   -7.0500   -5.5850 hc        1 MOL      0.066507
     37 H18        -2.3110   -6.3420   -5.5960 hc        1 MOL      0.066507
     38 N3         -2.8330   -5.2770   -0.4340 n         1 MOL     -0.217707
     39 C13        -3.8260   -4.1410   -0.6210 c3        1 MOL      0.039250
     40 C14        -3.7920   -3.1570    0.6080 c         1 MOL      0.276036
     41 O6         -4.1960   -2.0290    0.5070 o         1 MOL     -0.395309
     42 C15        -5.3060   -4.5940   -0.9630 c3        1 MOL     -0.275826
     43 C16        -5.8900   -5.6120   -0.0000 c         1 MOL      0.734215
     44 O7         -7.0090   -6.1060   -0.2460 o         1 MOL     -0.711564
     45 O8         -5.2470   -5.8640    1.0200 o         1 MOL     -0.711564
     46 H19        -3.1390   -6.0910    0.0880 hn        1 MOL      0.235265
     47 H20        -3.5580   -3.5490   -1.5010 h1        1 MOL      0.031007
     48 H21        -5.4400   -4.8830   -2.0080 hc        1 MOL      0.048768
     49 H22        -5.9220   -3.7020   -0.9090 hc        1 MOL      0.048768
     50 N4         -3.3460   -3.5610    1.7840 n         1 MOL     -0.087180
     51 C17        -3.1610   -2.8060    2.9530 c3        1 MOL     -0.322547
     52 C18        -4.5150   -2.4620    3.6480 c         1 MOL      0.647992
     53 O9         -4.8510   -2.9690    4.6840 o         1 MOL     -0.608891
     54 H23        -3.0610   -4.5240    1.7560 hn        1 MOL      0.262690
     55 H24        -2.7920   -1.8050    2.7240 h1        1 MOL      0.120882
     56 H25        -2.5370   -3.3220    3.6830 h1        1 MOL      0.120882
     57 N5         -5.2470   -1.5820    3.1110 n         1 MOL     -0.357646
     58 C19        -6.6620   -1.3950    3.4660 c3        1 MOL      0.026219
     59 C20        -7.6070   -1.2630    2.2790 c         1 MOL      0.441541
     60 O10        -8.8230   -1.1080    2.4940 o         1 MOL     -0.553705
     61 C21        -6.8270   -0.2120    4.4140 c3        1 MOL     -0.213233
     62 C22        -6.1380    1.0410    3.9050 c         1 MOL      0.746679
     63 O11        -5.9720    1.1610    2.6680 o         1 MOL     -0.709522
     64 O12        -5.8290    1.9190    4.7810 o         1 MOL     -0.709522
     65 H26        -4.8630   -1.1460    2.2820 hn        1 MOL      0.210118
     66 H27        -6.9990   -2.3080    3.9520 h1        1 MOL      0.113898
     67 H28        -6.6560   -0.4480    5.4570 hc        1 MOL      0.047195
     68 H29        -7.8980    0.0220    4.4370 hc        1 MOL      0.047195
     69 N6         -7.0990   -1.3370    1.0110 n         1 MOL     -0.245281
     70 C23        -7.7400   -0.9900   -0.2750 c3        1 MOL     -0.172122
     71 C24        -7.8700    0.4740   -0.5950 c         1 MOL      0.422662
     72 O13        -8.2140    0.8810   -1.6690 o         1 MOL     -0.563678
     73 H30        -6.1180   -1.5200    0.9080 hn        1 MOL      0.190241
     74 H31        -8.7550   -1.3860   -0.3010 h1        1 MOL      0.110553
     75 H32        -7.2440   -1.4700   -1.1280 h1        1 MOL      0.110553
     76 N7         -7.5550    1.3600    0.3430 n         1 MOL     -0.030545
     77 C25        -7.5340    2.8030    0.1860 c3        1 MOL      0.035100
     78 C26        -6.6830    3.4040   -1.0060 c         1 MOL      0.340933
     79 O14        -6.9100    4.5440   -1.3950 o         1 MOL     -0.499550
     80 C27        -8.8710    3.4330    0.2710 c3        1 MOL      0.023145
     81 C28        -9.7140    2.8890    1.4510 c3        1 MOL     -0.145071
     82 C29        -9.2990    3.6480    2.7860 c         1 MOL      0.662042
     83 N8         -9.6160    3.2070    4.0020 n         1 MOL     -0.905332
     84 O15        -8.5870    4.6260    2.7310 o         1 MOL     -0.535566
     85 H33        -7.0230    0.9500    1.1050 hn        1 MOL      0.119348
     86 H34        -7.0200    3.1290    1.0940 h1        1 MOL      0.092872
     87 H35        -9.4280    3.0950   -0.6120 hc        1 MOL      0.014119
     88 H36        -8.8670    4.5200    0.2450 hc        1 MOL      0.014119
     89 H37        -9.7500    1.8200    1.6440 hc        1 MOL      0.027348
     90 H38       -10.7800    3.1210    1.3390 hc        1 MOL      0.027348
     91 H39       -10.1120    2.3390    4.1610 hn        1 MOL      0.392079
     92 H40        -9.1190    3.6480    4.7710 hn        1 MOL      0.392079
     93 N9         -5.7240    2.7350   -1.5550 n         1 MOL     -0.175082
     94 C30        -4.9560    3.1460   -2.7210 c3        1 MOL     -0.197235
     95 C31        -3.5220    2.6480   -2.7470 c         1 MOL      0.464482
     96 O16        -2.8580    2.7660   -3.7840 o         1 MOL     -0.540229
     97 C32        -5.6500    2.8500   -4.0990 c3        1 MOL      0.316225
     98 C33        -5.7410    1.3150   -4.3050 c3        1 MOL     -0.292768
     99 C34        -7.0830    3.4150   -4.2680 c3        1 MOL     -0.292768
    100 H41        -5.6010    1.7910   -1.2140 hn        1 MOL      0.166438
    101 H42        -4.8310    4.2250   -2.6000 h1        1 MOL      0.148095
    102 H43        -5.1650    3.3050   -4.9740 hc        1 MOL     -0.014589
    103 H44        -6.3760    1.0200   -5.1450 hc        1 MOL      0.059980
    104 H45        -4.7530    0.9100   -4.5450 hc        1 MOL      0.059980
    105 H46        -6.0140    0.8240   -3.3730 hc        1 MOL      0.059980
    106 H47        -7.7330    3.0390   -3.4730 hc        1 MOL      0.059980
    107 H48        -7.0860    4.4960   -4.3300 hc        1 MOL      0.059980
    108 H49        -7.5660    2.8520   -5.0680 hc        1 MOL      0.059980
    109 N10        -2.9810    2.0270   -1.6850 n         1 MOL     -0.334970
    110 C35        -1.6650    1.3030   -1.6870 c3        1 MOL      0.159171
    111 C36        -0.7460    1.8130   -0.5780 c         1 MOL      0.504520
    112 O17        -1.2960    2.0870    0.4600 o         1 MOL     -0.477484
    113 C37        -1.8850   -0.1920   -1.6490 c3        1 MOL     -0.019615
    114 C38        -2.9050   -0.7410   -2.6620 c         1 MOL      0.424769
    115 N11        -4.0940   -1.1550   -2.2730 n         1 MOL     -0.334729
    116 O18        -2.6010   -0.7200   -3.7810 o         1 MOL     -0.531337
    117 H50        -3.5350    1.9880   -0.8490 hn        1 MOL      0.199243
    118 H51        -1.0960    1.4910   -2.6000 h1        1 MOL      0.034197
    119 H52        -2.1640   -0.6280   -0.6870 hc        1 MOL      0.016756
    120 H53        -0.9040   -0.6090   -1.8800 hc        1 MOL      0.016756
    121 H54        -4.4130   -1.0180   -1.3200 hn        1 MOL      0.237023
    122 H55        -4.7160   -1.5160   -2.9820 hn        1 MOL      0.237023
    123 N12         0.6400    1.7640   -0.7680 n         1 MOL     -0.589968
    124 C39         1.4720    2.3780    0.2390 c3        1 MOL      0.197280
    125 C40         2.7040    3.0500   -0.2690 c         1 MOL      0.459342
    126 O19         3.4590    2.4330   -1.0270 o         1 MOL     -0.558721
    127 C41         1.8140    1.2840    1.1900 c3        1 MOL     -0.246551
    128 C42         2.8680    1.6760    2.1920 ca        1 MOL     -0.044131
    129 C43         4.2440    1.3710    2.0720 ca        1 MOL     -0.080974
    130 C44         2.4570    2.4840    3.3030 ca        1 MOL     -0.080974
    131 C45         5.1580    1.6880    3.0880 ca        1 MOL     -0.323140
    132 C46         3.3980    2.8020    4.3310 ca        1 MOL     -0.323140
    133 C47         4.7570    2.4610    4.2000 ca        1 MOL      0.367309
    134 O20         5.6390    2.7370    5.1970 oh        1 MOL     -0.516737
    135 H56         1.0620    1.4680   -1.6280 hn        1 MOL      0.353134
    136 H57         0.8490    3.1330    0.7200 h1        1 MOL      0.054385
    137 H58         2.3180    0.4410    0.7170 hc        1 MOL      0.112708
    138 H59         0.9760    0.8230    1.7250 hc        1 MOL      0.112708
    139 H60         4.5630    0.7720    1.2260 ha        1 MOL      0.134561
    140 H61         1.3950    2.5900    3.4500 ha        1 MOL      0.134561
    141 H62         6.1690    1.3280    2.9440 ha        1 MOL      0.166172
    142 H63         3.0060    3.2780    5.2190 ha        1 MOL      0.166172
    143 H64         6.5110    2.3690    5.0150 ho        1 MOL      0.365022
    144 N13         2.9390    4.2990    0.0810 n         1 MOL     -0.396363
    145 C48         4.1660    5.1010   -0.2530 c3        1 MOL      0.000556
    146 C49         5.2530    5.0750    0.9240 c         1 MOL      0.626176
    147 O21         5.2650    5.9390    1.8040 o         1 MOL     -0.561101
    148 C50         3.8970    6.5560   -0.6120 c3        1 MOL     -0.056356
    149 C51         2.9060    6.8280   -1.7930 c3        1 MOL     -0.038553
    150 C52         2.7340    8.3310   -1.9670 c         1 MOL      0.673596
    151 O22         3.4360    8.8390   -2.9000 o         1 MOL     -0.711711
    152 O23         1.9630    8.9140   -1.1950 o         1 MOL     -0.711711
    153 H65         2.2590    4.7990    0.6270 hn        1 MOL      0.294848
    154 H66         4.6500    4.6910   -1.1370 h1        1 MOL      0.135458
    155 H67         4.8470    7.0060   -0.9020 hc        1 MOL      0.043384
    156 H68         3.5080    7.0850    0.2540 hc        1 MOL      0.043384
    157 H69         1.9140    6.4390   -1.5750 hc        1 MOL     -0.022275
    158 H70         3.1710    6.3600   -2.7420 hc        1 MOL     -0.022275
    159 N14         6.3680    4.2470    0.8510 n         1 MOL     -0.482930
    160 C53         6.6350    3.1530   -0.0740 c3        1 MOL     -0.198256
    161 C54         6.8900    3.5810   -1.4980 c         1 MOL      0.508415
    162 O24         7.4360    4.5960   -1.7490 o         1 MOL     -0.527203
    163 C55         7.8430    2.4430    0.4100 c3        1 MOL      0.142655
    164 C56         8.1800    1.1460   -0.3460 c3        1 MOL     -0.350146
    165 C57         9.2530    0.3200    0.2830 c         1 MOL      0.717439
    166 O25        10.4560    0.6490    0.0740 o         1 MOL     -0.718150
    167 O26         8.9940   -0.6560    0.9930 o         1 MOL     -0.718150
    168 H71         7.0880    4.4480    1.5220 hn        1 MOL      0.289698
    169 H72         5.7710    2.4850   -0.1340 h1        1 MOL      0.156898
    170 H73         7.7490    2.1440    1.4550 hc        1 MOL      0.015851
    171 H74         8.6880    3.1300    0.3790 hc        1 MOL      0.015851
    172 H75         8.6580    1.3780   -1.2930 hc        1 MOL      0.057689
    173 H76         7.2680    0.5490   -0.4460 hc        1 MOL      0.057689
    174 N15         6.2810    2.7950   -2.3880 n         1 MOL     -0.257232
    175 C58         6.0660    2.9140   -3.8550 c3        1 MOL     -0.084726
    176 H77         6.7440    2.2380   -4.3770 h1        1 MOL      0.063752
    177 H78         5.0360    2.6500   -4.0950 h1        1 MOL      0.063752
    178 H79         6.2610    3.9390   -4.1690 h1        1 MOL      0.063752
    179 H80         5.7520    2.0260   -2.0210 hn        1 MOL      0.243996
    180 Ca1         7.6590   -2.8380    1.2640 Ca        1 MOL      1.634542
    181 O27         8.2080   -2.8140   -1.3660 oh        1 MOL     -0.738073
    182 H81         7.5890   -2.6560   -2.0830 ho        1 MOL      0.366625
    183 H82         9.0680   -2.6100   -1.7380 ho        1 MOL      0.366625
    184 O28         7.6640   -5.5460    0.3680 oh        1 MOL     -0.738073
    185 H83         7.0210   -6.2290    0.5280 ho        1 MOL      0.366625
    186 H84         7.6020   -5.3740   -0.5750 ho        1 MOL      0.366625
    187 O29         6.4430   -1.2550    2.9880 oh        1 MOL     -0.738073
    188 H85         5.4840   -1.1810    3.0750 ho        1 MOL      0.366625
    189 H86         6.7570   -1.3830    3.8780 ho        1 MOL      0.366625
    190 O30         9.2050   -2.8180    3.6380 oh        1 MOL     -0.738073
    191 H87         9.7840   -2.0710    3.7900 ho        1 MOL      0.366625
    192 H88         8.5250   -2.7430    4.3100 ho        1 MOL      0.366625
    193 O31         6.8630   -4.9590    3.1720 oh        1 MOL     -0.738073
    194 H89         7.2900   -5.7920    3.3740 ho        1 MOL      0.366625
    195 H90         5.9360   -5.1840    3.0840 ho        1 MOL      0.366625
    196 O32        10.0780   -3.8110    0.5170 oh        1 MOL     -0.738073
    197 H91         9.9510   -3.6240   -0.4270 ho        1 MOL      0.366625
    198 H92        10.3790   -4.7220    0.5440 ho        1 MOL      0.366625
@<TRIPOS>BOND
     1    1    2 1   
     2    1    4 1   
     3    1    5 1   
     4    1    6 1   
     5    2    3 2   
     6    2    7 1   
     7    7    8 1   
     8    7   15 1   
     9    8    9 1   
    10    8   11 1   
    11    8   16 1   
    12    9   10 2   
    13    9   19 1   
    14   11   12 1   
    15   11   17 1   
    16   11   18 1   
    17   12   13 1   
    18   12   14 1   
    19   19   20 1   
    20   19   27 1   
    21   20   21 1   
    22   20   23 1   
    23   20   28 1   
    24   21   22 2   
    25   21   38 1   
    26   23   24 1   
    27   23   25 1   
    28   23   29 1   
    29   24   26 1   
    30   24   30 1   
    31   24   31 1   
    32   25   32 1   
    33   25   33 1   
    34   25   34 1   
    35   26   35 1   
    36   26   36 1   
    37   26   37 1   
    38   38   39 1   
    39   38   46 1   
    40   39   40 1   
    41   39   42 1   
    42   39   47 1   
    43   40   41 2   
    44   40   50 1   
    45   42   43 1   
    46   42   48 1   
    47   42   49 1   
    48   43   44 1   
    49   43   45 1   
    50   50   51 1   
    51   50   54 1   
    52   51   52 1   
    53   51   55 1   
    54   51   56 1   
    55   52   53 2   
    56   52   57 1   
    57   57   58 1   
    58   57   65 1   
    59   58   59 1   
    60   58   61 1   
    61   58   66 1   
    62   59   60 2   
    63   59   69 1   
    64   61   62 1   
    65   61   67 1   
    66   61   68 1   
    67   62   63 1   
    68   62   64 1   
    69   69   70 1   
    70   69   73 1   
    71   70   71 1   
    72   70   74 1   
    73   70   75 1   
    74   71   72 2   
    75   71   76 1   
    76   76   77 1   
    77   76   85 1   
    78   77   78 1   
    79   77   80 1   
    80   77   86 1   
    81   78   79 2   
    82   78   93 1   
    83   80   81 1   
    84   80   87 1   
    85   80   88 1   
    86   81   82 1   
    87   81   89 1   
    88   81   90 1   
    89   82   83 1   
    90   82   84 2   
    91   83   91 1   
    92   83   92 1   
    93   93   94 1   
    94   93  100 1   
    95   94   95 1   
    96   94   97 1   
    97   94  101 1   
    98   95   96 2   
    99   95  109 1   
   100   97   98 1   
   101   97   99 1   
   102   97  102 1   
   103   98  103 1   
   104   98  104 1   
   105   98  105 1   
   106   99  106 1   
   107   99  107 1   
   108   99  108 1   
   109  109  110 1   
   110  109  117 1   
   111  110  111 1   
   112  110  113 1   
   113  110  118 1   
   114  111  112 2   
   115  111  123 1   
   116  113  114 1   
   117  113  119 1   
   118  113  120 1   
   119  114  115 1   
   120  114  116 2   
   121  115  121 1   
   122  115  122 1   
   123  123  124 1   
   124  123  135 1   
   125  124  125 1   
   126  124  127 1   
   127  124  136 1   
   128  125  126 2   
   129  125  144 1   
   130  127  128 1   
   131  127  137 1   
   132  127  138 1   
   133  128  129 ar  
   134  128  130 ar  
   135  129  131 ar  
   136  129  139 1   
   137  130  132 ar  
   138  130  140 1   
   139  131  133 ar  
   140  131  141 1   
   141  132  133 ar  
   142  132  142 1   
   143  133  134 1   
   144  134  143 1   
   145  144  145 1   
   146  144  153 1   
   147  145  146 1   
   148  145  148 1   
   149  145  154 1   
   150  146  147 2   
   151  146  159 1   
   152  148  149 1   
   153  148  155 1   
   154  148  156 1   
   155  149  150 1   
   156  149  157 1   
   157  149  158 1   
   158  150  151 1   
   159  150  152 1   
   160  159  160 1   
   161  159  168 1   
   162  160  161 1   
   163  160  163 1   
   164  160  169 1   
   165  161  162 2   
   166  161  174 1   
   167  163  164 1   
   168  163  170 1   
   169  163  171 1   
   170  164  165 1   
   171  164  172 1   
   172  164  173 1   
   173  165  166 1   
   174  165  167 1   
   175  174  175 1   
   176  174  179 1   
   177  175  176 1   
   178  175  177 1   
   179  175  178 1   
   180  181  182 1   
   181  181  183 1   
   182  184  185 1   
   183  184  186 1   
   184  187  188 1   
   185  187  189 1   
   186  190  191 1   
   187  190  192 1   
   188  193  194 1   
   189  193  195 1   
   190  196  197 1   
   191  196  198 1   
@<TRIPOS>SUBSTRUCTURE
     1 MOL         1 TEMP              0 ****  ****    0 ROOT
