@<TRIPOS>MOLECULE
MOL
  181   177     1     0     0
SMALL
resp


@<TRIPOS>ATOM
      1 C1          5.1180   -2.6020    3.2750 c3        1 MOL     -0.489375
      2 C2          6.3990   -1.8240    2.9110 c         1 MOL      0.689851
      3 O1          6.3450   -0.7430    2.2990 o         1 MOL     -0.557296
      4 H1          5.3890   -3.5800    3.6710 hc        1 MOL      0.136943
      5 H2          4.5580   -2.0470    4.0270 hc        1 MOL      0.136943
      6 H3          4.5040   -2.7290    2.3830 hc        1 MOL      0.136943
      7 N1          7.5940   -2.2820    3.3300 n         1 MOL     -0.512260
      8 C3          8.7900   -1.4650    3.0980 c3        1 MOL      0.079077
      9 C4          9.3130   -1.6000    1.6440 c         1 MOL      0.557399
     10 O2         10.0050   -2.5720    1.2080 o         1 MOL     -0.529001
     11 C5          9.8690   -1.9450    4.1370 c3        1 MOL     -0.233171
     12 C6         11.1410   -1.0870    4.0210 c         1 MOL      0.749170
     13 O3         11.0250    0.0930    3.5370 o         1 MOL     -0.724480
     14 O4         12.2090   -1.5490    4.4370 o         1 MOL     -0.724480
     15 H4          7.7520   -3.2370    3.6220 hn        1 MOL      0.310107
     16 H5          8.6480   -0.4040    3.2970 h1        1 MOL      0.070201
     17 H6         10.0810   -3.0150    4.0420 hc        1 MOL      0.027140
     18 H7          9.3330   -1.9090    5.0880 hc        1 MOL      0.027140
     19 N2          8.8580   -0.6510    0.7090 n         1 MOL     -0.610691
     20 C7          8.9010   -0.8770   -0.7700 c3        1 MOL      0.492612
     21 C8          7.5320   -1.1280   -1.4420 c         1 MOL      0.214791
     22 O5          7.5440   -1.4790   -2.6240 o         1 MOL     -0.504662
     23 C9          9.6240    0.3250   -1.3930 c3        1 MOL     -0.414866
     24 H8          8.2150    0.0650    1.0130 hn        1 MOL      0.281505
     25 H9          9.5400   -1.7540   -0.9240 h1        1 MOL      0.019974
     26 H10         9.8660    0.0550   -2.4220 hc        1 MOL      0.100128
     27 H11         8.9820    1.2100   -1.3430 hc        1 MOL      0.100128
     28 H12        10.5700    0.4790   -0.8790 hc        1 MOL      0.100128
     29 N3          6.3550   -0.9420   -0.7910 n         1 MOL     -0.176910
     30 C10         4.9460   -1.0760   -1.2780 c3        1 MOL     -0.096594
     31 C11         4.6810   -0.2820   -2.5820 c         1 MOL      0.551644
     32 O6          3.9660   -0.6580   -3.4500 o         1 MOL     -0.500344
     33 C12         4.6340   -2.5280   -1.2840 c3        1 MOL      0.203748
     34 C13         3.2320   -2.9330   -1.5560 c         1 MOL      0.647382
     35 O7          2.9510   -4.0880   -1.9650 o         1 MOL     -0.739720
     36 O8          2.2180   -2.1470   -1.3970 o         1 MOL     -0.739720
     37 H13         6.5490   -0.8930    0.1990 hn        1 MOL      0.120210
     38 H14         4.2610   -0.6670   -0.5360 h1        1 MOL      0.057540
     39 H15         4.8930   -3.0300   -0.3620 hc        1 MOL     -0.033577
     40 H16         5.2860   -3.0430   -1.9790 hc        1 MOL     -0.033577
     41 N4          5.3450    0.9250   -2.6850 n         1 MOL     -0.247220
     42 C14         5.2730    1.7320   -3.9330 c3        1 MOL     -0.256157
     43 C15         4.1080    2.6850   -3.9910 c         1 MOL      0.742930
     44 O9          4.3600    3.8060   -4.4850 o         1 MOL     -0.613354
     45 H17         5.9100    1.2230   -1.9010 hn        1 MOL      0.222224
     46 H18         5.2590    1.0100   -4.7480 h1        1 MOL      0.112703
     47 H19         6.0950    2.4400   -3.9190 h1        1 MOL      0.112703
     48 N5          2.8910    2.3630   -3.5410 n         1 MOL     -0.654106
     49 C16         1.6530    3.2180   -3.5300 c3        1 MOL      0.380437
     50 C17         1.7090    4.2980   -2.4910 c         1 MOL      0.355293
     51 O10         2.3290    4.2690   -1.3730 o         1 MOL     -0.514824
     52 C18         0.4190    2.2620   -3.3780 c3        1 MOL     -0.255240
     53 C19        -0.8970    3.0510   -3.1580 c         1 MOL      0.590908
     54 N6         -1.2120    3.0260   -1.8900 n         1 MOL     -0.610410
     55 O11        -1.5040    3.6590   -4.0110 o         1 MOL     -0.588304
     56 H20         2.7830    1.4650   -3.1010 hn        1 MOL      0.268747
     57 H21         1.6340    3.7170   -4.4950 h1        1 MOL     -0.013607
     58 H22         0.5000    1.4520   -2.6460 hc        1 MOL      0.082308
     59 H23         0.2460    1.7410   -4.3230 hc        1 MOL      0.082308
     60 H24        -0.6210    2.5790   -1.2030 hn        1 MOL      0.307655
     61 H25        -2.1130    3.4580   -1.7100 hn        1 MOL      0.307655
     62 N7          1.0830    5.4140   -2.8430 n         1 MOL     -0.159142
     63 C20         0.9400    6.6640   -2.1310 c3        1 MOL     -0.355570
     64 C21        -0.3310    6.5860   -1.2970 c         1 MOL      0.677112
     65 O12        -1.3530    6.1150   -1.7620 o         1 MOL     -0.523704
     66 H26         0.5980    5.2940   -3.7150 hn        1 MOL      0.225323
     67 H27         0.8060    7.4630   -2.8690 h1        1 MOL      0.150883
     68 H28         1.8200    6.7390   -1.4960 h1        1 MOL      0.150883
     69 N8         -0.3630    6.8250    0.0220 n         1 MOL     -0.495485
     70 C22        -1.5570    6.8070    0.8880 c3        1 MOL     -0.266776
     71 C23        -1.7360    5.4430    1.4840 c         1 MOL      0.607601
     72 O13        -2.8260    5.3150    2.0620 o         1 MOL     -0.605048
     73 C24        -1.5580    7.8600    2.0270 c3        1 MOL      0.502202
     74 C25        -0.5080    7.6550    3.1730 c3        1 MOL     -0.363843
     75 O14        -1.2660    9.1510    1.5080 oh        1 MOL     -0.645444
     76 H29         0.4740    7.2110    0.4340 hn        1 MOL      0.260948
     77 H30        -2.4260    7.1070    0.3090 h1        1 MOL      0.163772
     78 H31        -2.5950    7.9260    2.3580 h1        1 MOL      0.038004
     79 H32        -0.4140    9.1190    1.0690 ho        1 MOL      0.369256
     80 H33        -1.0160    7.0070    3.8830 hc        1 MOL      0.092912
     81 H34         0.4210    7.2410    2.7960 hc        1 MOL      0.092912
     82 H35        -0.3300    8.6500    3.5960 hc        1 MOL      0.092912
     83 N9         -0.7920    4.5240    1.4870 n         1 MOL     -0.312474
     84 C26        -0.9070    3.2480    2.1300 c3        1 MOL     -0.331258
     85 C27        -0.9250    2.1330    1.1300 c         1 MOL      0.760881
     86 O15        -0.0120    1.9570    0.3190 o         1 MOL     -0.531750
     87 C28         0.1970    3.0660    3.2180 c3        1 MOL      0.270448
     88 C29         0.0460    4.2450    4.2000 c3        1 MOL      0.062344
     89 C30        -0.0620    1.8350    4.1170 c3        1 MOL     -0.133084
     90 C31         1.1580    4.4500    5.2630 c3        1 MOL     -0.251234
     91 H36        -0.0200    4.6710    0.8500 hn        1 MOL      0.239184
     92 H37        -1.8530    3.2560    2.6710 h1        1 MOL      0.117978
     93 H38         1.1920    2.9250    2.7930 hc        1 MOL      0.018326
     94 H39        -0.9140    4.2060    4.7010 hc        1 MOL     -0.004368
     95 H40         0.2280    5.1840    3.6770 hc        1 MOL     -0.004368
     96 H41         0.6290    1.8770    4.9550 hc        1 MOL      0.023818
     97 H42        -1.1240    1.8600    4.4010 hc        1 MOL      0.023818
     98 H43         0.1380    0.9760    3.4710 hc        1 MOL      0.023818
     99 H44         0.7470    4.1890    6.2450 hc        1 MOL      0.057886
    100 H45         2.0230    3.8040    5.1560 hc        1 MOL      0.057886
    101 H46         1.5660    5.4570    5.3440 hc        1 MOL      0.057886
    102 N10        -1.9410    1.2780    1.2310 n         1 MOL     -0.611365
    103 C32        -2.1230    0.1230    0.2890 c3        1 MOL      0.169540
    104 C33        -3.5650   -0.2300   -0.0730 c         1 MOL      0.542207
    105 O16        -3.7480   -1.4080   -0.5340 o         1 MOL     -0.485690
    106 C34        -1.2960   -1.0270    0.7560 c3        1 MOL      0.106903
    107 C35        -0.9580   -2.0250   -0.3270 c         1 MOL      0.462928
    108 O17        -0.5070   -3.2280   -0.0730 o         1 MOL     -0.662830
    109 O18        -1.1700   -1.7030   -1.5340 o         1 MOL     -0.662830
    110 H47        -2.6290    1.3670    1.9690 hn        1 MOL      0.325670
    111 H48        -1.7270    0.3690   -0.6990 h1        1 MOL     -0.014031
    112 H49        -1.7200   -1.5300    1.6250 hc        1 MOL     -0.002121
    113 H50        -0.4290   -0.5410    1.2050 hc        1 MOL     -0.002121
    114 N11        -4.5310    0.6390    0.1800 n         1 MOL     -0.590364
    115 C36        -5.9400    0.4610   -0.0050 c3        1 MOL      0.455908
    116 C37        -6.5130   -0.6080    0.9240 c         1 MOL      0.216938
    117 O19        -6.1860   -0.5520    2.0830 o         1 MOL     -0.444067
    118 C38        -6.5690    1.8520    0.0550 c3        1 MOL     -0.192087
    119 C39        -8.0340    1.7320   -0.3930 ca        1 MOL      0.091177
    120 C40        -8.4350    1.4330   -1.7190 ca        1 MOL     -0.175438
    121 C41        -9.0260    1.8550    0.5540 ca        1 MOL     -0.175438
    122 C42        -9.7630    1.0790   -2.0220 ca        1 MOL     -0.110298
    123 C43       -10.3840    1.5770    0.2540 ca        1 MOL     -0.110298
    124 C44       -10.7330    1.2400   -0.9850 ca        1 MOL     -0.087491
    125 H51        -4.2200    1.5780    0.3820 hn        1 MOL      0.259052
    126 H52        -6.0720    0.0410   -1.0000 h1        1 MOL     -0.052526
    127 H53        -6.1100    2.5250   -0.6600 hc        1 MOL      0.085631
    128 H54        -6.5770    2.2450    1.0710 hc        1 MOL      0.085631
    129 H55        -7.6750    1.2960   -2.4810 ha        1 MOL      0.125056
    130 H56        -8.7680    2.0790    1.5750 ha        1 MOL      0.125056
    131 H57       -10.1400    0.8640   -3.0160 ha        1 MOL      0.110909
    132 H58       -11.1200    1.4290    1.0370 ha        1 MOL      0.110909
    133 H59       -11.7630    1.1870   -1.3220 ha        1 MOL      0.086387
    134 N12        -7.3550   -1.6220    0.4310 n         1 MOL     -0.045187
    135 C45        -7.9960   -2.6380    1.2270 c3        1 MOL     -0.010309
    136 C46        -7.0850   -3.6640    1.9460 c         1 MOL      0.412699
    137 O20        -7.4370   -4.1990    2.9490 o         1 MOL     -0.512152
    138 C47        -8.9630   -3.2500    0.2470 c3        1 MOL     -0.239178
    139 C48        -8.1880   -3.1910   -1.1070 c3        1 MOL      0.036740
    140 C49        -7.3510   -1.9350   -0.9870 c3        1 MOL      0.000508
    141 H60        -8.6070   -2.1220    1.9620 h1        1 MOL      0.077523
    142 H61        -9.1240   -4.3000    0.4760 hc        1 MOL      0.089284
    143 H62        -9.8780   -2.6540    0.2200 hc        1 MOL      0.089284
    144 H63        -7.5430   -4.0630   -1.2200 hc        1 MOL      0.007744
    145 H64        -8.7970   -3.1420   -2.0070 hc        1 MOL      0.007744
    146 H65        -6.3910   -2.2820   -1.3600 h1        1 MOL      0.015457
    147 H66        -7.6990   -1.0570   -1.5190 h1        1 MOL      0.015457
    148 N13        -5.9110   -3.9930    1.4040 n         1 MOL     -0.194358
    149 C50        -4.7760   -4.7130    2.0180 c3        1 MOL     -0.480584
    150 C51        -4.2990   -4.0740    3.3570 c         1 MOL      0.538677
    151 O21        -3.6880   -4.7890    4.1310 o         1 MOL     -0.546748
    152 C52        -3.5500   -4.7330    1.0250 c3        1 MOL      0.219379
    153 C53        -3.5620   -5.6730   -0.1160 c3        1 MOL     -0.027005
    154 C54        -2.1190   -5.7120   -0.7890 c         1 MOL      0.616403
    155 O22        -1.2390   -6.3670   -0.2090 o         1 MOL     -0.716441
    156 O23        -1.8980   -5.1180   -1.8850 o         1 MOL     -0.716441
    157 H67        -5.7080   -3.6070    0.4920 hn        1 MOL      0.294314
    158 H68        -5.1200   -5.7280    2.2200 h1        1 MOL      0.210640
    159 H69        -2.7270   -5.0770    1.6570 hc        1 MOL      0.036550
    160 H70        -3.3580   -3.7100    0.7120 hc        1 MOL      0.036550
    161 H71        -4.3090   -5.3710   -0.8570 hc        1 MOL     -0.036427
    162 H72        -3.8290   -6.6650    0.2530 hc        1 MOL     -0.036427
    163 N14        -4.6200   -2.8240    3.6730 n         1 MOL     -0.105417
    164 C55        -4.1400   -2.1460    4.8880 c3        1 MOL     -0.240931
    165 H73        -3.8490   -1.1250    4.6430 h1        1 MOL      0.094113
    166 H74        -4.9350   -2.1270    5.6330 h1        1 MOL      0.094113
    167 H75        -3.2790   -2.6820    5.2880 h1        1 MOL      0.094113
    168 H76        -5.0850   -2.3050    2.9400 hn        1 MOL      0.121106
    169 Ca1         0.3330   -3.7710   -2.4280 Ca        1 MOL      1.767360
    170 O24        -1.1590   -3.1050   -4.2530 oh        1 MOL     -0.828291
    171 H77        -1.9270   -2.7840   -3.7730 ho        1 MOL      0.400754
    172 H78        -1.4680   -3.2010   -5.1470 ho        1 MOL      0.400754
    173 O25         1.5900   -2.0090   -4.2550 oh        1 MOL     -0.828291
    174 H79         2.2360   -1.3440   -3.9800 ho        1 MOL      0.400754
    175 H80         1.2250   -1.6600   -5.0690 ho        1 MOL      0.400754
    176 O26         1.1090   -6.0910   -1.0390 oh        1 MOL     -0.828291
    177 H81         1.1320   -6.9210   -1.5250 ho        1 MOL      0.400754
    178 H82         0.3100   -6.1470   -0.5050 ho        1 MOL      0.400754
    179 O27         0.6840   -5.6340   -4.2890 oh        1 MOL     -0.828291
    180 H83         1.4620   -5.9570   -4.7410 ho        1 MOL      0.400754
    181 H84        -0.0500   -6.0890   -4.7040 ho        1 MOL      0.400754
@<TRIPOS>BOND
     1    1    2 1   
     2    1    4 1   
     3    1    5 1   
     4    1    6 1   
     5    2    3 2   
     6    2    7 1   
     7    7    8 1   
     8    7   15 1   
     9    8    9 1   
    10    8   11 1   
    11    8   16 1   
    12    9   10 2   
    13    9   19 1   
    14   11   12 1   
    15   11   17 1   
    16   11   18 1   
    17   12   13 1   
    18   12   14 1   
    19   19   20 1   
    20   19   24 1   
    21   20   21 1   
    22   20   23 1   
    23   20   25 1   
    24   21   22 2   
    25   21   29 1   
    26   23   26 1   
    27   23   27 1   
    28   23   28 1   
    29   29   30 1   
    30   29   37 1   
    31   30   31 1   
    32   30   33 1   
    33   30   38 1   
    34   31   32 2   
    35   31   41 1   
    36   33   34 1   
    37   33   39 1   
    38   33   40 1   
    39   34   35 1   
    40   34   36 1   
    41   41   42 1   
    42   41   45 1   
    43   42   43 1   
    44   42   46 1   
    45   42   47 1   
    46   43   44 2   
    47   43   48 1   
    48   48   49 1   
    49   48   56 1   
    50   49   50 1   
    51   49   52 1   
    52   49   57 1   
    53   50   51 2   
    54   50   62 1   
    55   52   53 1   
    56   52   58 1   
    57   52   59 1   
    58   53   54 1   
    59   53   55 2   
    60   54   60 1   
    61   54   61 1   
    62   62   63 1   
    63   62   66 1   
    64   63   64 1   
    65   63   67 1   
    66   63   68 1   
    67   64   65 2   
    68   64   69 1   
    69   69   70 1   
    70   69   76 1   
    71   70   71 1   
    72   70   73 1   
    73   70   77 1   
    74   71   72 2   
    75   71   83 1   
    76   73   74 1   
    77   73   75 1   
    78   73   78 1   
    79   74   80 1   
    80   74   81 1   
    81   74   82 1   
    82   75   79 1   
    83   83   84 1   
    84   83   91 1   
    85   84   85 1   
    86   84   87 1   
    87   84   92 1   
    88   85   86 2   
    89   85  102 1   
    90   87   88 1   
    91   87   89 1   
    92   87   93 1   
    93   88   90 1   
    94   88   94 1   
    95   88   95 1   
    96   89   96 1   
    97   89   97 1   
    98   89   98 1   
    99   90   99 1   
   100   90  100 1   
   101   90  101 1   
   102  102  103 1   
   103  102  110 1   
   104  103  104 1   
   105  103  106 1   
   106  103  111 1   
   107  104  105 2   
   108  104  114 1   
   109  106  107 1   
   110  106  112 1   
   111  106  113 1   
   112  107  108 1   
   113  107  109 1   
   114  114  115 1   
   115  114  125 1   
   116  115  116 1   
   117  115  118 1   
   118  115  126 1   
   119  116  117 2   
   120  116  134 1   
   121  118  119 1   
   122  118  127 1   
   123  118  128 1   
   124  119  120 ar  
   125  119  121 ar  
   126  120  122 ar  
   127  120  129 1   
   128  121  123 ar  
   129  121  130 1   
   130  122  124 ar  
   131  122  131 1   
   132  123  124 ar  
   133  123  132 1   
   134  124  133 1   
   135  134  135 1   
   136  134  140 1   
   137  135  136 1   
   138  135  138 1   
   139  135  141 1   
   140  136  137 2   
   141  136  148 1   
   142  138  139 1   
   143  138  142 1   
   144  138  143 1   
   145  139  140 1   
   146  139  144 1   
   147  139  145 1   
   148  140  146 1   
   149  140  147 1   
   150  148  149 1   
   151  148  157 1   
   152  149  150 1   
   153  149  152 1   
   154  149  158 1   
   155  150  151 2   
   156  150  163 1   
   157  152  153 1   
   158  152  159 1   
   159  152  160 1   
   160  153  154 1   
   161  153  161 1   
   162  153  162 1   
   163  154  155 1   
   164  154  156 1   
   165  163  164 1   
   166  163  168 1   
   167  164  165 1   
   168  164  166 1   
   169  164  167 1   
   170  170  171 1   
   171  170  172 1   
   172  173  174 1   
   173  173  175 1   
   174  176  177 1   
   175  176  178 1   
   176  179  180 1   
   177  179  181 1   
@<TRIPOS>SUBSTRUCTURE
     1 MOL         1 TEMP              0 ****  ****    0 ROOT
