@<TRIPOS>MOLECULE
MOL
  182   178     1     0     0
SMALL
resp


@<TRIPOS>ATOM
      1 C1          1.1150   -4.1940    5.9440 c3        1 MOL     -0.464843
      2 C2          1.1510   -3.9570    4.4010 c         1 MOL      0.758934
      3 O1          0.1260   -4.0900    3.7130 o         1 MOL     -0.625163
      4 H1          0.7530   -5.2010    6.1470 hc        1 MOL      0.137083
      5 H2          2.1190   -4.0800    6.3530 hc        1 MOL      0.137083
      6 H3          0.4480   -3.4680    6.4080 hc        1 MOL      0.137083
      7 N1          2.3710   -3.7110    3.8060 n         1 MOL     -0.573619
      8 C3          2.6320   -3.2380    2.4360 c3        1 MOL      0.055054
      9 C4          2.8810   -4.3900    1.3950 c         1 MOL      0.648862
     10 O2          3.5640   -5.3660    1.6510 o         1 MOL     -0.542155
     11 C5          3.8140   -2.2910    2.5150 c3        1 MOL     -0.109309
     12 C6          3.8530   -1.2500    1.4110 c         1 MOL      0.606683
     13 O3          3.8910   -0.0640    1.6730 o         1 MOL     -0.700984
     14 O4          3.7000   -1.5280    0.2070 o         1 MOL     -0.700984
     15 H4          3.1770   -3.7780    4.4200 hn        1 MOL      0.324483
     16 H5          1.8070   -2.6980    1.9590 h1        1 MOL     -0.140316
     17 H6          4.6630   -2.9740    2.4570 hc        1 MOL      0.055376
     18 H7          3.9010   -1.8070    3.4900 hc        1 MOL      0.055376
     19 N2          2.2440   -4.2010    0.1550 n         1 MOL     -0.465671
     20 C7          2.3500   -5.1840   -0.9360 c3        1 MOL     -0.032601
     21 C8          3.4180   -4.8280   -1.9710 c         1 MOL      0.504245
     22 O5          3.6340   -5.4870   -2.9720 o         1 MOL     -0.561724
     23 C9          0.9690   -5.3580   -1.5360 c3        1 MOL     -0.054012
     24 C10        -0.1240   -5.8980   -0.5320 c3        1 MOL     -0.019466
     25 C11        -1.5310   -6.0110   -1.2730 c3        1 MOL     -0.099273
     26 C12        -2.1180   -4.7670   -1.8930 c3        1 MOL      0.219316
     27 N3         -3.1970   -4.9900   -2.8370 n4        1 MOL     -0.250460
     28 H8          1.7230   -3.3450    0.0230 hn        1 MOL      0.297121
     29 H9          2.6840   -6.1470   -0.5570 h1        1 MOL      0.120328
     30 H10         1.0280   -6.0820   -2.3380 hc        1 MOL      0.042199
     31 H11         0.6250   -4.4340   -2.0060 hc        1 MOL      0.042199
     32 H12        -0.3080   -5.1390    0.2280 hc        1 MOL      0.044495
     33 H13         0.1100   -6.8430   -0.0420 hc        1 MOL      0.044495
     34 H14        -2.2030   -6.3490   -0.4960 hc        1 MOL      0.030526
     35 H15        -1.5000   -6.8040   -2.0160 hc        1 MOL      0.030526
     36 H16        -1.2360   -4.3060   -2.3450 hx        1 MOL     -0.005863
     37 H17        -2.4240   -4.0750   -1.1070 hx        1 MOL     -0.005863
     38 H18        -2.8030   -5.3870   -3.6850 hn        1 MOL      0.245812
     39 H19        -3.9420   -5.6120   -2.5470 hn        1 MOL      0.245812
     40 H20        -3.5420   -4.0860   -3.1160 hn        1 MOL      0.245812
     41 N4          4.1740   -3.7840   -1.7600 n         1 MOL     -0.329959
     42 C13         5.3970   -3.4080   -2.5550 c3        1 MOL      0.050890
     43 C14         6.6620   -3.0010   -1.7150 c         1 MOL      0.315888
     44 O6          7.7950   -3.1580   -2.1590 o         1 MOL     -0.512517
     45 C15         4.9850   -2.3790   -3.6140 c3        1 MOL     -0.239707
     46 C16         4.2760   -1.1650   -3.1300 c         1 MOL      0.802282
     47 O7          5.0140   -0.2020   -2.7610 o         1 MOL     -0.785767
     48 O8          3.0320   -1.0160   -2.9230 o         1 MOL     -0.785767
     49 H21         3.9670   -3.1280   -1.0210 hn        1 MOL      0.280917
     50 H22         5.7560   -4.2810   -3.1050 h1        1 MOL      0.135401
     51 H23         4.4210   -2.9890   -4.3220 hc        1 MOL      0.068670
     52 H24         5.8680   -2.0940   -4.1910 hc        1 MOL      0.068670
     53 N5          6.4320   -2.6120   -0.4630 n         1 MOL     -0.043966
     54 C17         7.4470   -2.1980    0.4710 c3        1 MOL     -0.068119
     55 C18         7.7590   -0.6660    0.4900 c         1 MOL      0.419381
     56 O9          8.7590   -0.2940    1.1270 o         1 MOL     -0.528849
     57 H25         5.4800   -2.6720   -0.1420 hn        1 MOL      0.018779
     58 H26         8.3950   -2.6910    0.2830 h1        1 MOL      0.080333
     59 H27         7.2720   -2.5880    1.4780 h1        1 MOL      0.080333
     60 N6          7.0190    0.1660   -0.1670 n         1 MOL     -0.243266
     61 C19         7.2860    1.5860   -0.3860 c3        1 MOL      0.065024
     62 C20         6.0200    2.3740   -0.5000 c         1 MOL      0.428474
     63 O10         4.9160    1.8280   -0.5740 o         1 MOL     -0.396728
     64 C21         8.0660    1.6320   -1.7550 c3        1 MOL     -0.399633
     65 C22         9.4740    1.0590   -1.6460 c         1 MOL      0.728328
     66 N7          9.8670    0.1160   -2.4210 n         1 MOL     -0.806534
     67 O11        10.2390    1.5200   -0.7990 o         1 MOL     -0.563186
     68 H28         6.3170   -0.2460   -0.7670 hn        1 MOL      0.305410
     69 H29         7.8800    1.9760    0.4490 h1        1 MOL      0.084965
     70 H30         8.2850    2.6960   -1.8260 hc        1 MOL      0.095834
     71 H31         7.4790    1.2590   -2.5890 hc        1 MOL      0.095834
     72 H32         9.2090   -0.3980   -2.9940 hn        1 MOL      0.379546
     73 H33        10.8200   -0.2350   -2.3870 hn        1 MOL      0.379546
     74 N8          6.2520    3.6520   -0.5040 n         1 MOL     -0.342059
     75 C23         5.2360    4.7160   -0.7000 c3        1 MOL     -0.097156
     76 C24         4.1060    4.7520    0.3790 c         1 MOL      0.467378
     77 O12         4.3080    4.8270    1.6040 o         1 MOL     -0.470739
     78 H34         7.2210    3.8860   -0.4010 hn        1 MOL      0.309925
     79 H35         4.8300    4.6980   -1.7040 h1        1 MOL      0.086606
     80 H36         5.6210    5.7320   -0.6020 h1        1 MOL      0.086606
     81 N9          2.8330    4.5750   -0.1190 n         1 MOL     -0.399266
     82 C25         1.6330    4.4470    0.7300 c3        1 MOL      0.023554
     83 C26         1.4020    3.0930    1.3310 c         1 MOL      0.720710
     84 O13         2.1560    2.2000    0.9040 o         1 MOL     -0.522419
     85 C27         0.5010    4.9010   -0.1890 c3        1 MOL     -0.242607
     86 C28         0.3340    6.4080   -0.3850 ca        1 MOL      0.064188
     87 C29         0.5600    7.2910    0.7260 ca        1 MOL     -0.148557
     88 C30        -0.0980    6.9810   -1.5910 ca        1 MOL     -0.148557
     89 C31         0.3050    8.6730    0.6650 ca        1 MOL     -0.239154
     90 C32        -0.3650    8.3740   -1.6760 ca        1 MOL     -0.239154
     91 C33        -0.1100    9.1880   -0.5530 ca        1 MOL      0.306242
     92 O14        -0.3580   10.5420   -0.7520 oh        1 MOL     -0.474146
     93 H37         2.7440    4.5260   -1.1210 hn        1 MOL      0.244211
     94 H38         1.7310    4.9950    1.6720 h1        1 MOL      0.084014
     95 H39        -0.4750    4.5380    0.1460 hc        1 MOL      0.089313
     96 H40         0.5960    4.4710   -1.1940 hc        1 MOL      0.089313
     97 H41         0.9250    6.8870    1.6680 ha        1 MOL      0.122554
     98 H42        -0.2960    6.3000   -2.3960 ha        1 MOL      0.122554
     99 H43         0.2950    9.2500    1.5830 ha        1 MOL      0.162362
    100 H44        -0.6850    8.8660   -2.5830 ha        1 MOL      0.162362
    101 H45        -0.2530   11.0060    0.0820 ho        1 MOL      0.361550
    102 N10         0.4580    2.8350    2.1950 n         1 MOL     -0.680755
    103 C34         0.1000    1.4850    2.7730 c3        1 MOL      0.259396
    104 C35        -0.1990    0.4390    1.6700 c         1 MOL      0.112814
    105 O15         0.6840   -0.1950    1.0540 o         1 MOL     -0.192488
    106 C36         1.1520    1.0090    3.8160 c3        1 MOL      0.154827
    107 C37         0.8080   -0.2770    4.5750 c3        1 MOL      0.074951
    108 C38         1.3870    2.1330    4.8940 c3        1 MOL     -0.337456
    109 C39        -0.6850   -0.5360    5.0400 c3        1 MOL     -0.558519
    110 H46        -0.1380    3.5900    2.5080 hn        1 MOL      0.335450
    111 H47        -0.8420    1.6860    3.2860 h1        1 MOL      0.021055
    112 H48         2.1090    0.8080    3.3350 hc        1 MOL      0.046991
    113 H49         1.4890   -0.4540    5.4040 hc        1 MOL      0.036315
    114 H50         1.0490   -1.1360    3.9500 hc        1 MOL      0.036315
    115 H51         1.7680    3.0190    4.4000 hc        1 MOL      0.085750
    116 H52         0.4530    2.2300    5.4520 hc        1 MOL      0.085750
    117 H53         2.1700    1.8690    5.6100 hc        1 MOL      0.085750
    118 H54        -0.8010   -1.5620    5.3970 hc        1 MOL      0.137819
    119 H55        -0.8910    0.0370    5.9450 hc        1 MOL      0.137819
    120 H56        -1.4900   -0.4950    4.3100 hc        1 MOL      0.137819
    121 N11        -1.4640    0.1700    1.5510 n         1 MOL     -0.348905
    122 C40        -1.9630   -0.9730    0.8330 c3        1 MOL      0.081824
    123 C41        -3.4630   -0.9130    0.4210 c         1 MOL      0.589841
    124 O16        -3.8580   -1.7670   -0.3430 o         1 MOL     -0.524561
    125 C42        -1.8000   -2.1830    1.6880 c3        1 MOL     -0.112801
    126 O17        -0.5910   -2.8020    1.3440 oh        1 MOL     -0.416531
    127 H57        -2.1480    0.5860    2.1650 hn        1 MOL      0.301304
    128 H58        -1.4420   -1.0150   -0.1260 h1        1 MOL      0.001955
    129 H59        -2.5470   -2.9100    1.3880 h1        1 MOL      0.075739
    130 H60        -1.9140   -1.9960    2.7570 h1        1 MOL      0.075739
    131 H61        -0.3460   -3.3300    2.1050 ho        1 MOL      0.450461
    132 N12        -4.2060    0.1450    0.8360 n         1 MOL     -0.542683
    133 C43        -5.5560    0.1720    0.4290 c3        1 MOL      0.098934
    134 C44        -5.7170    0.7080   -0.9770 c         1 MOL      0.619876
    135 O18        -4.9090    1.5600   -1.4030 o         1 MOL     -0.586414
    136 C45        -6.2700    1.1100    1.4050 c3        1 MOL     -0.199209
    137 H62        -3.7990    0.9500    1.3010 hn        1 MOL      0.280782
    138 H63        -5.9560   -0.8260    0.6110 h1        1 MOL      0.116611
    139 H64        -6.2190    0.7160    2.4220 hc        1 MOL      0.071726
    140 H65        -6.0190    2.1780    1.4660 hc        1 MOL      0.071726
    141 H66        -7.3260    1.1460    1.1380 hc        1 MOL      0.071726
    142 N13        -6.6280    0.2230   -1.7850 n         1 MOL     -0.644934
    143 C46        -7.8650   -0.4620   -1.4390 c3        1 MOL      0.525882
    144 C47        -9.0700    0.1940   -2.2530 c         1 MOL      0.301958
    145 O19        -8.9330    0.6450   -3.3830 o         1 MOL     -0.503803
    146 C48        -7.6310   -1.9470   -1.7620 c3        1 MOL     -0.357415
    147 H67        -6.5540    0.6570   -2.6930 hn        1 MOL      0.324552
    148 H68        -8.1400   -0.2990   -0.4010 h1        1 MOL     -0.090421
    149 H69        -8.5530   -2.5290   -1.6770 hc        1 MOL      0.094341
    150 H70        -7.3840   -1.9660   -2.8190 hc        1 MOL      0.094341
    151 H71        -6.8020   -2.2890   -1.1430 hc        1 MOL      0.094341
    152 N14       -10.3260    0.1790   -1.7440 n         1 MOL     -0.311845
    153 C49       -10.6020   -0.0680   -0.3650 c3        1 MOL     -0.282063
    154 C50       -10.1660    1.1900    0.4890 c         1 MOL      0.489803
    155 O20        -9.9650    1.0010    1.6740 o         1 MOL     -0.506766
    156 C51       -12.0930   -0.2960   -0.1710 c3        1 MOL      0.344118
    157 C52       -12.6130   -1.5490   -0.8750 c3        1 MOL     -0.325355
    158 C53       -14.0240   -1.8240   -0.4800 c         1 MOL      0.716687
    159 O21       -14.5160   -2.9640   -0.7780 o         1 MOL     -0.661581
    160 O22       -14.7520   -1.0430    0.1850 o         1 MOL     -0.661581
    161 H72       -11.0880    0.5410   -2.3050 hn        1 MOL      0.303291
    162 H73       -10.1130   -0.9730   -0.0010 h1        1 MOL      0.128983
    163 H74       -12.6870    0.5850   -0.4130 hc        1 MOL     -0.038437
    164 H75       -12.2950   -0.3850    0.8960 hc        1 MOL     -0.038437
    165 H76       -11.9150   -2.3680   -0.7220 hc        1 MOL      0.052206
    166 H77       -12.6090   -1.3920   -1.9520 hc        1 MOL      0.052206
    167 N15       -10.0260    2.3690   -0.1450 n         1 MOL     -0.261792
    168 C54        -9.4850    3.6000    0.4310 c3        1 MOL     -0.295727
    169 H78        -9.6420    4.4260   -0.2640 h1        1 MOL      0.127111
    170 H79        -9.9930    3.8160    1.3710 h1        1 MOL      0.127111
    171 H80        -8.4170    3.4780    0.6130 h1        1 MOL      0.127111
    172 H81       -10.5020    2.5140   -1.0290 hn        1 MOL      0.260397
    173 Ca1         2.5410    0.3850   -0.9160 Ca        1 MOL      1.740613
    174 O23         0.2000    1.5770   -1.4100 oh        1 MOL     -0.925756
    175 H82        -0.6360    1.1410   -1.5750 ho        1 MOL      0.443150
    176 H83         0.0930    2.4610   -1.7590 ho        1 MOL      0.443150
    177 O24         2.8390    2.4070   -2.7540 oh        1 MOL     -0.925756
    178 H84         2.7880    3.3300   -3.0030 ho        1 MOL      0.443150
    179 H85         3.5460    2.0380   -3.2800 ho        1 MOL      0.443150
    180 O25         0.7970   -1.7660   -1.0000 oh        1 MOL     -0.925756
    181 H86         0.4100   -1.6050   -0.1450 ho        1 MOL      0.443150
    182 H87         0.0480   -1.7990   -1.6060 ho        1 MOL      0.443150
@<TRIPOS>BOND
     1    1    2 1   
     2    1    4 1   
     3    1    5 1   
     4    1    6 1   
     5    2    3 2   
     6    2    7 1   
     7    7    8 1   
     8    7   15 1   
     9    8    9 1   
    10    8   11 1   
    11    8   16 1   
    12    9   10 2   
    13    9   19 1   
    14   11   12 1   
    15   11   17 1   
    16   11   18 1   
    17   12   13 1   
    18   12   14 1   
    19   19   20 1   
    20   19   28 1   
    21   20   21 1   
    22   20   23 1   
    23   20   29 1   
    24   21   22 2   
    25   21   41 1   
    26   23   24 1   
    27   23   30 1   
    28   23   31 1   
    29   24   25 1   
    30   24   32 1   
    31   24   33 1   
    32   25   26 1   
    33   25   34 1   
    34   25   35 1   
    35   26   27 1   
    36   26   36 1   
    37   26   37 1   
    38   27   38 1   
    39   27   39 1   
    40   27   40 1   
    41   41   42 1   
    42   41   49 1   
    43   42   43 1   
    44   42   45 1   
    45   42   50 1   
    46   43   44 2   
    47   43   53 1   
    48   45   46 1   
    49   45   51 1   
    50   45   52 1   
    51   46   47 1   
    52   46   48 1   
    53   53   54 1   
    54   53   57 1   
    55   54   55 1   
    56   54   58 1   
    57   54   59 1   
    58   55   56 2   
    59   55   60 1   
    60   60   61 1   
    61   60   68 1   
    62   61   62 1   
    63   61   64 1   
    64   61   69 1   
    65   62   63 2   
    66   62   74 1   
    67   64   65 1   
    68   64   70 1   
    69   64   71 1   
    70   65   66 1   
    71   65   67 2   
    72   66   72 1   
    73   66   73 1   
    74   74   75 1   
    75   74   78 1   
    76   75   76 1   
    77   75   79 1   
    78   75   80 1   
    79   76   77 2   
    80   76   81 1   
    81   81   82 1   
    82   81   93 1   
    83   82   83 1   
    84   82   85 1   
    85   82   94 1   
    86   83   84 2   
    87   83  102 1   
    88   85   86 1   
    89   85   95 1   
    90   85   96 1   
    91   86   87 ar  
    92   86   88 ar  
    93   87   89 ar  
    94   87   97 1   
    95   88   90 ar  
    96   88   98 1   
    97   89   91 ar  
    98   89   99 1   
    99   90   91 ar  
   100   90  100 1   
   101   91   92 1   
   102   92  101 1   
   103  102  103 1   
   104  102  110 1   
   105  103  104 1   
   106  103  106 1   
   107  103  111 1   
   108  104  105 2   
   109  104  121 1   
   110  106  107 1   
   111  106  108 1   
   112  106  112 1   
   113  107  109 1   
   114  107  113 1   
   115  107  114 1   
   116  108  115 1   
   117  108  116 1   
   118  108  117 1   
   119  109  118 1   
   120  109  119 1   
   121  109  120 1   
   122  121  122 1   
   123  121  127 1   
   124  122  123 1   
   125  122  125 1   
   126  122  128 1   
   127  123  124 2   
   128  123  132 1   
   129  125  126 1   
   130  125  129 1   
   131  125  130 1   
   132  126  131 1   
   133  132  133 1   
   134  132  137 1   
   135  133  134 1   
   136  133  136 1   
   137  133  138 1   
   138  134  135 2   
   139  134  142 1   
   140  136  139 1   
   141  136  140 1   
   142  136  141 1   
   143  142  143 1   
   144  142  147 1   
   145  143  144 1   
   146  143  146 1   
   147  143  148 1   
   148  144  145 2   
   149  144  152 1   
   150  146  149 1   
   151  146  150 1   
   152  146  151 1   
   153  152  153 1   
   154  152  161 1   
   155  153  154 1   
   156  153  156 1   
   157  153  162 1   
   158  154  155 2   
   159  154  167 1   
   160  156  157 1   
   161  156  163 1   
   162  156  164 1   
   163  157  158 1   
   164  157  165 1   
   165  157  166 1   
   166  158  159 1   
   167  158  160 1   
   168  167  168 1   
   169  167  172 1   
   170  168  169 1   
   171  168  170 1   
   172  168  171 1   
   173  174  175 1   
   174  174  176 1   
   175  177  178 1   
   176  177  179 1   
   177  180  181 1   
   178  180  182 1   
@<TRIPOS>SUBSTRUCTURE
     1 MOL         1 TEMP              0 ****  ****    0 ROOT
