@<TRIPOS>MOLECULE
MOL
  178   175     1     0     0
SMALL
resp


@<TRIPOS>ATOM
      1 C1          4.0280   -2.1950    2.9750 c3        1 MOL     -0.482221
      2 C2          5.4240   -1.4980    2.6810 c         1 MOL      0.618104
      3 O1          5.5840   -0.2710    2.7640 o         1 MOL     -0.565063
      4 H1          3.9510   -3.1130    2.3920 hc        1 MOL      0.131299
      5 H2          3.9560   -2.4310    4.0370 hc        1 MOL      0.131299
      6 H3          3.2190   -1.5210    2.6960 hc        1 MOL      0.131299
      7 N1          6.4740   -2.2840    2.5500 n         1 MOL     -0.356971
      8 C3          7.8530   -1.8210    2.2820 c3        1 MOL     -0.024538
      9 C4          8.0920   -1.4710    0.7450 c         1 MOL      0.574208
     10 O2          8.0120   -2.2290   -0.2110 o         1 MOL     -0.527387
     11 C5          8.8750   -2.8460    2.6670 c3        1 MOL     -0.117728
     12 C6         10.3150   -2.2280    2.7090 c         1 MOL      0.653860
     13 O3         11.2300   -2.8890    2.1670 o         1 MOL     -0.707012
     14 O4         10.4730   -1.1300    3.2950 o         1 MOL     -0.707012
     15 H4          6.2880   -3.2700    2.5970 hn        1 MOL      0.235362
     16 H5          8.0430   -0.8830    2.8160 h1        1 MOL      0.080177
     17 H6          8.9830   -3.7970    2.1500 hc        1 MOL      0.007454
     18 H7          8.5410   -3.0470    3.6870 hc        1 MOL      0.007454
     19 N2          8.4920   -0.1690    0.4850 n         1 MOL     -0.419298
     20 C7          8.3360    0.4990   -0.7760 c3        1 MOL      0.250978
     21 C8          6.8180    0.4850   -1.2330 c         1 MOL      0.619314
     22 O5          6.0900    1.4310   -1.1860 o         1 MOL     -0.555395
     23 C9          8.9570    1.9500   -0.7810 c3        1 MOL     -0.443405
     24 H8          8.5090    0.4040    1.3280 hn        1 MOL      0.253730
     25 H9          8.8660   -0.1010   -1.5130 h1        1 MOL      0.014620
     26 H10         8.6870    2.5200    0.1100 hc        1 MOL      0.113819
     27 H11        10.0260    1.7820   -0.8950 hc        1 MOL      0.113819
     28 H12         8.4790    2.4910   -1.5910 hc        1 MOL      0.113819
     29 N3          6.2750   -0.6740   -1.5420 n         1 MOL     -0.819822
     30 C10         4.8060   -1.0160   -1.7150 c3        1 MOL      0.565131
     31 C11         4.1710   -0.7260   -3.0960 c         1 MOL      0.124035
     32 O6          2.9960   -1.1530   -3.2980 o         1 MOL     -0.371786
     33 C12         4.6650   -2.4790   -1.3430 c3        1 MOL     -0.115883
     34 C13         3.2490   -3.0440   -1.3730 c         1 MOL      0.697932
     35 O7          2.9800   -4.0340   -2.0240 o         1 MOL     -0.775939
     36 O8          2.3800   -2.4700   -0.7620 o         1 MOL     -0.775939
     37 H13         6.9040   -1.4590   -1.5010 hn        1 MOL      0.314051
     38 H14         4.2250   -0.3780   -1.0440 h1        1 MOL      0.036117
     39 H15         5.1310   -2.6790   -0.3770 hc        1 MOL     -0.008741
     40 H16         5.3840   -3.0280   -1.9580 hc        1 MOL     -0.008741
     41 N4          4.8540    0.0190   -3.9560 n         1 MOL     -0.091908
     42 C14         4.4170    0.5890   -5.1810 c3        1 MOL     -0.378877
     43 C15         3.2520    1.5810   -5.0410 c         1 MOL      0.549687
     44 O9          2.5450    1.8700   -6.0070 o         1 MOL     -0.550631
     45 H17         5.7820    0.2570   -3.6310 hn        1 MOL      0.187394
     46 H18         4.1170   -0.2490   -5.8200 h1        1 MOL      0.150691
     47 H19         5.2190    1.1630   -5.6410 h1        1 MOL      0.150691
     48 N5          3.1030    2.1920   -3.8790 n         1 MOL     -0.293349
     49 C16         1.9370    3.0620   -3.4730 c3        1 MOL     -0.228311
     50 C17         2.3400    4.0160   -2.3360 c         1 MOL      0.594206
     51 O10         2.9360    3.5710   -1.3830 o         1 MOL     -0.485242
     52 C18         0.9070    2.0200   -3.1200 c3        1 MOL     -0.087002
     53 C19        -0.4420    2.7100   -3.0590 c         1 MOL      0.638322
     54 N6         -1.0450    2.6490   -1.9470 n         1 MOL     -0.675663
     55 O11        -1.0010    3.2190   -4.0500 o         1 MOL     -0.602916
     56 H20         3.8150    2.1770   -3.1610 hn        1 MOL      0.240913
     57 H21         1.5030    3.6000   -4.3130 h1        1 MOL      0.100718
     58 H22         1.1330    1.3900   -2.2670 hc        1 MOL      0.111504
     59 H23         0.7520    1.2980   -3.9200 hc        1 MOL      0.111504
     60 H24        -0.5650    2.4350   -1.0800 hn        1 MOL      0.298951
     61 H25        -1.7230    3.3650   -1.7260 hn        1 MOL      0.298951
     62 N7          1.8200    5.2240   -2.4680 n         1 MOL     -0.455941
     63 C20         1.8580    6.2170   -1.4170 c3        1 MOL     -0.020344
     64 C21         0.5100    6.3200   -0.6410 c         1 MOL      0.641964
     65 O12        -0.5700    6.0360   -1.1720 o         1 MOL     -0.522396
     66 H26         1.2170    5.4010   -3.2560 hn        1 MOL      0.312338
     67 H27         1.9960    7.2240   -1.8250 h1        1 MOL      0.058998
     68 H28         2.6650    6.0810   -0.6980 h1        1 MOL      0.058998
     69 N8          0.6330    6.7890    0.6250 n         1 MOL     -0.517905
     70 C22        -0.4960    7.0520    1.5510 c3        1 MOL     -0.295932
     71 C23        -1.1770    5.8530    2.2630 c         1 MOL      0.542304
     72 O13        -2.1770    6.0160    2.9690 o         1 MOL     -0.542056
     73 C24        -0.1440    8.0510    2.6010 c3        1 MOL      0.651440
     74 C25         0.8760    7.6270    3.6890 c3        1 MOL     -0.429991
     75 O14         0.3950    9.2210    2.0540 oh        1 MOL     -0.678617
     76 H29         1.5630    7.0690    0.9170 hn        1 MOL      0.273105
     77 H30        -1.2540    7.5880    0.9760 h1        1 MOL      0.149039
     78 H31        -1.0680    8.2360    3.1370 h1        1 MOL     -0.011448
     79 H32         1.2340    8.9930    1.6770 ho        1 MOL      0.389296
     80 H33         1.1120    8.5260    4.2470 hc        1 MOL      0.095517
     81 H34         0.3980    6.8580    4.3000 hc        1 MOL      0.095517
     82 H35         1.7330    7.1180    3.2460 hc        1 MOL      0.095517
     83 N9         -0.5830    4.6600    1.9790 n         1 MOL     -0.263518
     84 C26        -1.0370    3.3450    2.3910 c3        1 MOL     -0.136990
     85 C27        -0.8910    2.2540    1.3490 c         1 MOL      0.611776
     86 O15         0.0080    2.2100    0.5490 o         1 MOL     -0.518294
     87 C28        -0.2940    2.9360    3.6830 c3        1 MOL      0.184011
     88 C29        -0.4290    3.9050    4.8510 c3        1 MOL      0.064430
     89 C30        -0.7160    1.5440    4.2020 c3        1 MOL     -0.013614
     90 C31        -1.8570    3.9550    5.4480 c3        1 MOL     -0.225552
     91 H36         0.1930    4.6480    1.3430 hn        1 MOL      0.219575
     92 H37        -2.0860    3.3620    2.6870 h1        1 MOL      0.098062
     93 H38         0.7850    2.8880    3.5410 hc        1 MOL     -0.023008
     94 H39        -0.0780    4.8830    4.5130 hc        1 MOL     -0.008689
     95 H40         0.2590    3.5500    5.6220 hc        1 MOL     -0.008689
     96 H41        -0.1160    1.3120    5.0770 hc        1 MOL      0.001570
     97 H42        -1.7530    1.5170    4.5340 hc        1 MOL      0.001570
     98 H43        -0.4780    0.7620    3.4750 hc        1 MOL      0.001570
     99 H44        -2.7440    3.8800    4.8210 hc        1 MOL      0.048965
    100 H45        -1.8780    3.1870    6.2240 hc        1 MOL      0.048965
    101 H46        -1.8000    4.8520    6.0690 hc        1 MOL      0.048965
    102 N10        -1.8930    1.4740    1.2350 n         1 MOL     -0.663959
    103 C32        -1.8500    0.3160    0.3490 c3        1 MOL      0.615479
    104 C33        -3.2730    0.0190   -0.1870 c         1 MOL      0.415449
    105 O16        -3.5940   -1.1250   -0.5700 o         1 MOL     -0.480988
    106 C34        -1.3370   -0.9500    1.1010 c3        1 MOL     -0.372320
    107 C35        -0.8750   -2.1540    0.2220 c         1 MOL      0.801466
    108 O17        -0.4920   -3.2020    0.8040 o         1 MOL     -0.736242
    109 O18        -0.7020   -2.0410   -1.0030 o         1 MOL     -0.736242
    110 H47        -2.6890    1.5770    1.8480 hn        1 MOL      0.303191
    111 H48        -1.3060    0.5410   -0.5630 h1        1 MOL     -0.032624
    112 H49        -2.1370   -1.2870    1.7490 hc        1 MOL      0.071752
    113 H50        -0.5320   -0.7180    1.8010 hc        1 MOL      0.071752
    114 N11        -4.2660    0.9700   -0.1800 n         1 MOL     -0.655021
    115 C36        -5.6110    0.7760   -0.5830 c3        1 MOL      0.661258
    116 C37        -6.3650   -0.2800    0.2760 c         1 MOL      0.208548
    117 O19        -6.2340   -0.2190    1.5250 o         1 MOL     -0.521527
    118 C38        -6.3430    2.1200   -0.5790 c3        1 MOL     -0.372797
    119 C39        -7.6000    2.0430   -1.5160 ca        1 MOL      0.194827
    120 C40        -7.6220    2.7480   -2.7190 ca        1 MOL     -0.195981
    121 C41        -8.7440    1.5290   -1.0050 ca        1 MOL     -0.195981
    122 C42        -8.7560    2.7640   -3.5330 ca        1 MOL     -0.085908
    123 C43        -9.8710    1.4280   -1.8290 ca        1 MOL     -0.085908
    124 C44        -9.8940    2.0360   -3.1380 ca        1 MOL     -0.188512
    125 H51        -3.9590    1.8360    0.2430 hn        1 MOL      0.266757
    126 H52        -5.7090    0.4470   -1.6180 h1        1 MOL     -0.093537
    127 H53        -5.7210    2.9610   -0.8950 hc        1 MOL      0.103697
    128 H54        -6.7570    2.2040    0.4310 hc        1 MOL      0.103697
    129 H55        -6.7090    3.2680   -2.9750 ha        1 MOL      0.130352
    130 H56        -8.7520    1.1350    0.0010 ha        1 MOL      0.130352
    131 H57        -8.6590    3.2490   -4.4960 ha        1 MOL      0.107780
    132 H58       -10.7080    0.8440   -1.4790 ha        1 MOL      0.107780
    133 H59       -10.6720    1.8980   -3.8690 ha        1 MOL      0.129303
    134 N12        -7.1000   -1.3180   -0.2410 n         1 MOL     -0.004126
    135 C45        -7.9050   -2.2040    0.6030 c3        1 MOL     -0.067033
    136 C46        -7.0060   -3.1880    1.4720 c         1 MOL      0.488564
    137 O20        -7.4560   -3.7280    2.4310 o         1 MOL     -0.557387
    138 C47        -8.8110   -2.8650   -0.3830 c3        1 MOL      0.056444
    139 C48        -8.0060   -3.0920   -1.6840 c3        1 MOL     -0.237698
    140 C49        -7.3150   -1.6610   -1.6000 c3        1 MOL     -0.117408
    141 H60        -8.5120   -1.6680    1.3280 h1        1 MOL      0.065510
    142 H61        -9.2500   -3.7710    0.0420 hc        1 MOL      0.010905
    143 H62        -9.5990   -2.1920   -0.6880 hc        1 MOL      0.010905
    144 H63        -7.2330   -3.8380   -1.5000 hc        1 MOL      0.101776
    145 H64        -8.6660   -3.1150   -2.5620 hc        1 MOL      0.101776
    146 H65        -6.3880   -1.8540   -2.1240 h1        1 MOL      0.080678
    147 H66        -7.8330   -0.9020   -2.1790 h1        1 MOL      0.080678
    148 N13        -5.7170   -3.3500    1.1920 n         1 MOL     -0.172511
    149 C50        -4.8630   -4.5290    1.5310 c3        1 MOL     -0.134148
    150 C51        -4.4430   -4.3420    3.0100 c         1 MOL      0.500001
    151 O21        -4.1790   -5.3020    3.7330 o         1 MOL     -0.559461
    152 C52        -3.7530   -4.6830    0.4990 c3        1 MOL      0.154741
    153 C53        -3.0370   -6.0800    0.5160 c3        1 MOL     -0.208471
    154 C54        -1.7260   -5.9890   -0.3040 c         1 MOL      0.672250
    155 O22        -0.6900   -6.3680    0.2390 o         1 MOL     -0.719108
    156 O23        -1.7780   -5.5360   -1.4730 o         1 MOL     -0.719108
    157 H67        -5.3720   -2.8710    0.3680 hn        1 MOL      0.186255
    158 H68        -5.4530   -5.4330    1.4170 h1        1 MOL      0.081533
    159 H69        -3.0460   -3.8680    0.6360 hc        1 MOL     -0.026399
    160 H70        -4.1420   -4.5650   -0.5140 hc        1 MOL     -0.026399
    161 H71        -3.6300   -6.8440    0.0200 hc        1 MOL      0.044502
    162 H72        -2.7890   -6.4210    1.5250 hc        1 MOL      0.044502
    163 N14        -4.4110   -3.1380    3.5700 n         1 MOL     -0.150802
    164 C55        -3.9560   -2.7250    4.8850 c3        1 MOL     -0.251259
    165 H73        -3.4210   -1.7780    4.8030 h1        1 MOL      0.097981
    166 H74        -4.8150   -2.6000    5.5450 h1        1 MOL      0.097981
    167 H75        -3.2890   -3.4830    5.2940 h1        1 MOL      0.097981
    168 H76        -4.6240   -2.4110    2.8980 hn        1 MOL      0.176816
    169 Ca1         0.5890   -4.5880   -0.9700 Ca        1 MOL      1.797774
    170 O24        -0.2270   -4.0400   -3.4310 oh        1 MOL     -0.848306
    171 H77        -0.3740   -4.4760   -4.2630 ho        1 MOL      0.412609
    172 H78        -0.3380   -3.1030   -3.6130 ho        1 MOL      0.412609
    173 O25         2.4960   -5.5100    0.7200 oh        1 MOL     -0.848306
    174 H79         3.3490   -5.7260    0.3550 ho        1 MOL      0.412609
    175 H80         2.6110   -5.5630    1.6650 ho        1 MOL      0.412609
    176 O26         1.5480   -6.9680   -1.7760 oh        1 MOL     -0.848306
    177 H81         1.5520   -7.8390   -1.3770 ho        1 MOL      0.412609
    178 H82         2.1710   -7.0370   -2.5040 ho        1 MOL      0.412609
@<TRIPOS>BOND
     1    1    2 1   
     2    1    4 1   
     3    1    5 1   
     4    1    6 1   
     5    2    3 2   
     6    2    7 1   
     7    7    8 1   
     8    7   15 1   
     9    8    9 1   
    10    8   11 1   
    11    8   16 1   
    12    9   10 2   
    13    9   19 1   
    14   11   12 1   
    15   11   17 1   
    16   11   18 1   
    17   12   13 1   
    18   12   14 1   
    19   19   20 1   
    20   19   24 1   
    21   20   21 1   
    22   20   23 1   
    23   20   25 1   
    24   21   22 2   
    25   21   29 1   
    26   23   26 1   
    27   23   27 1   
    28   23   28 1   
    29   29   30 1   
    30   29   37 1   
    31   30   31 1   
    32   30   33 1   
    33   30   38 1   
    34   31   32 2   
    35   31   41 1   
    36   33   34 1   
    37   33   39 1   
    38   33   40 1   
    39   34   35 1   
    40   34   36 1   
    41   41   42 1   
    42   41   45 1   
    43   42   43 1   
    44   42   46 1   
    45   42   47 1   
    46   43   44 2   
    47   43   48 1   
    48   48   49 1   
    49   48   56 1   
    50   49   50 1   
    51   49   52 1   
    52   49   57 1   
    53   50   51 2   
    54   50   62 1   
    55   52   53 1   
    56   52   58 1   
    57   52   59 1   
    58   53   54 1   
    59   53   55 2   
    60   54   60 1   
    61   54   61 1   
    62   62   63 1   
    63   62   66 1   
    64   63   64 1   
    65   63   67 1   
    66   63   68 1   
    67   64   65 2   
    68   64   69 1   
    69   69   70 1   
    70   69   76 1   
    71   70   71 1   
    72   70   73 1   
    73   70   77 1   
    74   71   72 2   
    75   71   83 1   
    76   73   74 1   
    77   73   75 1   
    78   73   78 1   
    79   74   80 1   
    80   74   81 1   
    81   74   82 1   
    82   75   79 1   
    83   83   84 1   
    84   83   91 1   
    85   84   85 1   
    86   84   87 1   
    87   84   92 1   
    88   85   86 2   
    89   85  102 1   
    90   87   88 1   
    91   87   89 1   
    92   87   93 1   
    93   88   90 1   
    94   88   94 1   
    95   88   95 1   
    96   89   96 1   
    97   89   97 1   
    98   89   98 1   
    99   90   99 1   
   100   90  100 1   
   101   90  101 1   
   102  102  103 1   
   103  102  110 1   
   104  103  104 1   
   105  103  106 1   
   106  103  111 1   
   107  104  105 2   
   108  104  114 1   
   109  106  107 1   
   110  106  112 1   
   111  106  113 1   
   112  107  108 1   
   113  107  109 1   
   114  114  115 1   
   115  114  125 1   
   116  115  116 1   
   117  115  118 1   
   118  115  126 1   
   119  116  117 2   
   120  116  134 1   
   121  118  119 1   
   122  118  127 1   
   123  118  128 1   
   124  119  120 ar  
   125  119  121 ar  
   126  120  122 ar  
   127  120  129 1   
   128  121  123 ar  
   129  121  130 1   
   130  122  124 ar  
   131  122  131 1   
   132  123  124 ar  
   133  123  132 1   
   134  124  133 1   
   135  134  135 1   
   136  134  140 1   
   137  135  136 1   
   138  135  138 1   
   139  135  141 1   
   140  136  137 2   
   141  136  148 1   
   142  138  139 1   
   143  138  142 1   
   144  138  143 1   
   145  139  140 1   
   146  139  144 1   
   147  139  145 1   
   148  140  146 1   
   149  140  147 1   
   150  148  149 1   
   151  148  157 1   
   152  149  150 1   
   153  149  152 1   
   154  149  158 1   
   155  150  151 2   
   156  150  163 1   
   157  152  153 1   
   158  152  159 1   
   159  152  160 1   
   160  153  154 1   
   161  153  161 1   
   162  153  162 1   
   163  154  155 1   
   164  154  156 1   
   165  163  164 1   
   166  163  168 1   
   167  164  165 1   
   168  164  166 1   
   169  164  167 1   
   170  170  171 1   
   171  170  172 1   
   172  173  174 1   
   173  173  175 1   
   174  176  177 1   
   175  176  178 1   
@<TRIPOS>SUBSTRUCTURE
     1 MOL         1 TEMP              0 ****  ****    0 ROOT
