@<TRIPOS>MOLECULE
MOL
  178   175     1     0     0
SMALL
resp


@<TRIPOS>ATOM
      1 C1          1.4090    6.5740   -2.1660 c3        1 MOL     -0.467347
      2 C2          2.7370    6.8140   -1.5030 c         1 MOL      0.733828
      3 O1          3.0660    7.8250   -0.9010 o         1 MOL     -0.594034
      4 H1          0.6090    6.7250   -1.4390 hc        1 MOL      0.124008
      5 H2          1.2840    7.2720   -2.9940 hc        1 MOL      0.124008
      6 H3          1.3690    5.5520   -2.5420 hc        1 MOL      0.124008
      7 N1          3.6970    5.8130   -1.5910 n         1 MOL     -0.667031
      8 C3          5.1100    5.8320   -1.0270 c3        1 MOL      0.379016
      9 C4          5.2080    4.7100    0.0210 c         1 MOL      0.540312
     10 O2          5.6030    3.5870   -0.3150 o         1 MOL     -0.536996
     11 C5          6.0400    5.6750   -2.2810 c3        1 MOL     -0.259224
     12 C6          7.5420    5.8550   -1.9780 c         1 MOL      0.706359
     13 O3          8.3240    5.8550   -2.9510 o         1 MOL     -0.728685
     14 O4          7.9130    5.9230   -0.7810 o         1 MOL     -0.728685
     15 H4          3.5640    5.1470   -2.3430 hn        1 MOL      0.276753
     16 H5          5.3570    6.8060   -0.5930 h1        1 MOL      0.004283
     17 H6          5.7370    6.4110   -3.0130 hc        1 MOL      0.036055
     18 H7          5.9100    4.6850   -2.7220 hc        1 MOL      0.036055
     19 N2          4.8290    4.9720    1.2730 n         1 MOL     -0.838927
     20 C7          4.8730    4.0010    2.3490 c3        1 MOL      0.770779
     21 C8          3.5380    3.3310    2.5160 c         1 MOL      0.288085
     22 O5          2.4940    3.8130    2.0700 o         1 MOL     -0.506103
     23 C9          5.1800    4.7130    3.6180 c3        1 MOL     -0.411438
     24 H8          4.4920    5.9010    1.4600 hn        1 MOL      0.362042
     25 H9          5.6220    3.2260    2.2060 h1        1 MOL     -0.031941
     26 H10         5.1910    4.0910    4.5050 hc        1 MOL      0.086465
     27 H11         6.1960    5.1020    3.5300 hc        1 MOL      0.086465
     28 H12         4.4230    5.4990    3.7120 hc        1 MOL      0.086465
     29 N3          3.4500    2.1160    3.0870 n         1 MOL     -0.298094
     30 C10         4.3840    1.0580    3.5020 c3        1 MOL     -0.197791
     31 C11         4.5360   -0.1580    2.4250 c         1 MOL      0.538456
     32 O6          3.6770   -0.3160    1.6090 o         1 MOL     -0.473537
     33 C12         3.8640    0.3080    4.7600 c3        1 MOL      0.014716
     34 C13         2.5190   -0.3700    4.7380 c         1 MOL      0.569837
     35 O7          2.2020   -1.0620    5.7490 o         1 MOL     -0.652579
     36 O8          1.8150   -0.2980    3.6710 o         1 MOL     -0.652579
     37 H13         2.4910    1.8000    3.1290 hn        1 MOL      0.238013
     38 H14         5.3580    1.5000    3.6800 h1        1 MOL      0.085953
     39 H15         3.8700    1.0500    5.5620 hc        1 MOL      0.014091
     40 H16         4.6760   -0.3180    5.1350 hc        1 MOL      0.014091
     41 N4          5.6830   -0.8060    2.3230 n         1 MOL     -0.561469
     42 C14         5.9740   -1.7400    1.2380 c3        1 MOL      0.159840
     43 C15         6.5470   -1.0230    0.0730 c         1 MOL      0.576759
     44 O9          7.0370    0.0660    0.2780 o         1 MOL     -0.466951
     45 H17         6.3600   -0.4920    3.0140 hn        1 MOL      0.329934
     46 H18         5.0300   -2.2010    0.9460 h1        1 MOL      0.013485
     47 H19         6.5960   -2.5870    1.5410 h1        1 MOL      0.013485
     48 N5          6.7090   -1.5590   -1.1550 n         1 MOL     -0.627446
     49 C16         6.3100   -2.8920   -1.5420 c3        1 MOL      0.205529
     50 C17         4.9280   -2.9510   -2.2800 c         1 MOL      0.564541
     51 O10         4.4150   -1.9350   -2.6950 o         1 MOL     -0.518370
     52 C18         7.4160   -3.4610   -2.4820 c3        1 MOL     -0.226277
     53 C19         8.7720   -3.4180   -1.8110 c         1 MOL      0.669741
     54 N6          9.0730   -4.3350   -0.9260 n         1 MOL     -0.779573
     55 O11         9.6230   -2.5920   -2.1410 o         1 MOL     -0.541221
     56 H20         7.1360   -1.0090   -1.8840 hn        1 MOL      0.375628
     57 H21         6.2670   -3.5190   -0.6530 h1        1 MOL     -0.049297
     58 H22         7.4310   -2.9130   -3.4230 hc        1 MOL      0.066758
     59 H23         7.2350   -4.5020   -2.7530 hc        1 MOL      0.066758
     60 H24         8.4810   -5.1060   -0.6310 hn        1 MOL      0.362784
     61 H25         9.9500   -4.1350   -0.4700 hn        1 MOL      0.362784
     62 N7          4.4480   -4.1270   -2.6460 n         1 MOL     -0.378977
     63 C20         3.3610   -4.3700   -3.5170 c3        1 MOL     -0.257739
     64 C21         2.1390   -4.8210   -2.8240 c         1 MOL      0.565056
     65 O12         1.2040   -5.2070   -3.4660 o         1 MOL     -0.578088
     66 H26         4.8760   -4.9580   -2.2580 hn        1 MOL      0.259942
     67 H27         3.6010   -5.1540   -4.2340 h1        1 MOL      0.163605
     68 H28         3.1640   -3.4090   -4.0040 h1        1 MOL      0.163605
     69 N8          1.9740   -4.8490   -1.4900 n         1 MOL     -0.281102
     70 C22         0.7530   -5.3330   -0.7680 c3        1 MOL     -0.002062
     71 C23        -0.2660   -4.1730   -0.6210 c         1 MOL      0.605753
     72 O13         0.0380   -3.0700   -0.0830 o         1 MOL     -0.667757
     73 C24         1.1340   -5.9180    0.6110 c3        1 MOL      0.223645
     74 C25         0.0280   -6.1010    1.7110 c3        1 MOL     -0.246039
     75 O14         1.8240   -7.0660    0.3220 oh        1 MOL     -0.637442
     76 H29         2.8170   -4.7720   -0.9450 hn        1 MOL      0.148990
     77 H30         0.2660   -6.1090   -1.3520 h1        1 MOL      0.105743
     78 H31         1.8870   -5.2170    0.9680 h1        1 MOL      0.016709
     79 H32         2.6300   -7.0840    0.8390 ho        1 MOL      0.389723
     80 H33        -0.3970   -5.1300    1.9640 hc        1 MOL      0.088897
     81 H34        -0.8170   -6.6520    1.2890 hc        1 MOL      0.088897
     82 H35         0.5080   -6.5330    2.5880 hc        1 MOL      0.088897
     83 N9         -1.4270   -4.4050   -1.1650 n         1 MOL     -0.299257
     84 C26        -2.5750   -3.5450   -1.1100 c3        1 MOL     -0.437307
     85 C27        -3.3670   -3.7160    0.1890 c         1 MOL      0.680724
     86 O15        -3.8920   -4.8110    0.4840 o         1 MOL     -0.587633
     87 C28        -3.3500   -3.6760   -2.3890 c3        1 MOL      0.252050
     88 C29        -4.6860   -2.8220   -2.2970 c3        1 MOL      0.185407
     89 C30        -2.4260   -3.2790   -3.6500 c3        1 MOL     -0.326068
     90 C31        -5.6330   -2.9550   -3.4770 c3        1 MOL     -0.298505
     91 H36        -1.4470   -5.2440   -1.7420 hn        1 MOL      0.260009
     92 H37        -2.2100   -2.5140   -1.0970 h1        1 MOL      0.271099
     93 H38        -3.6940   -4.6860   -2.6010 hc        1 MOL     -0.024311
     94 H39        -4.3250   -1.7980   -2.3050 hc        1 MOL     -0.035799
     95 H40        -5.1940   -3.0140   -1.3480 hc        1 MOL     -0.035799
     96 H41        -1.5490   -3.9170   -3.6660 hc        1 MOL      0.079579
     97 H42        -3.0400   -3.3340   -4.5550 hc        1 MOL      0.079579
     98 H43        -2.0290   -2.2690   -3.6700 hc        1 MOL      0.079579
     99 H44        -5.9870   -3.9820   -3.5970 hc        1 MOL      0.054021
    100 H45        -6.5590   -2.4200   -3.2840 hc        1 MOL      0.054021
    101 H46        -5.1220   -2.5940   -4.3720 hc        1 MOL      0.054021
    102 N10        -3.5820   -2.5530    0.8760 n         1 MOL     -0.211429
    103 C32        -4.2380   -2.4580    2.2050 c3        1 MOL     -0.110582
    104 C33        -5.4090   -1.4380    2.2560 c         1 MOL      0.564069
    105 O16        -6.2890   -1.5510    3.1240 o         1 MOL     -0.587955
    106 C34        -3.1400   -2.0320    3.2110 c3        1 MOL      0.074007
    107 C35        -1.8690   -2.8600    3.2000 c         1 MOL      0.670505
    108 O17        -0.8240   -2.3490    2.7490 o         1 MOL     -0.693999
    109 O18        -2.0260   -3.9610    3.6980 o         1 MOL     -0.693999
    110 H47        -3.1220   -1.6970    0.5960 hn        1 MOL      0.094262
    111 H48        -4.6490   -3.4430    2.4000 h1        1 MOL      0.103849
    112 H49        -3.4920   -2.1020    4.2480 hc        1 MOL     -0.027530
    113 H50        -2.9380   -0.9790    3.0170 hc        1 MOL     -0.027530
    114 N11        -5.5200   -0.5230    1.2890 n         1 MOL     -0.528864
    115 C36        -6.6640    0.3690    1.0700 c3        1 MOL      0.260024
    116 C37        -6.0960    1.7300    0.4630 c         1 MOL      0.185573
    117 O19        -6.4720    2.0730   -0.5970 o         1 MOL     -0.400307
    118 C38        -7.8270   -0.2620    0.2720 c3        1 MOL     -0.198789
    119 C39        -9.1590    0.4850    0.2710 ca        1 MOL      0.112869
    120 C40       -10.0960    0.1950   -0.6860 ca        1 MOL     -0.162437
    121 C41        -9.4940    1.4990    1.2090 ca        1 MOL     -0.162437
    122 C42       -11.3390    0.8740   -0.7830 ca        1 MOL     -0.060935
    123 C43       -10.7000    2.2540    1.1540 ca        1 MOL     -0.060935
    124 C44       -11.7190    1.8360    0.1970 ca        1 MOL     -0.231054
    125 H51        -4.7010   -0.4940    0.6980 hn        1 MOL      0.296807
    126 H52        -6.9910    0.5540    2.0890 h1        1 MOL      0.048533
    127 H53        -7.9760   -1.2700    0.6660 hc        1 MOL      0.099682
    128 H54        -7.5480   -0.4770   -0.7630 hc        1 MOL      0.099682
    129 H55        -9.8600   -0.7040   -1.2410 ha        1 MOL      0.089857
    130 H56        -8.7110    1.6880    1.9310 ha        1 MOL      0.089857
    131 H57       -12.0200    0.5620   -1.5550 ha        1 MOL      0.095925
    132 H58       -10.9170    3.0150    1.8780 ha        1 MOL      0.095925
    133 H59       -12.6270    2.4020    0.0510 ha        1 MOL      0.129220
    134 N12        -5.0830    2.3780    1.1230 n         1 MOL      0.119294
    135 C45        -4.6920    3.7220    0.6530 c3        1 MOL     -0.151247
    136 C46        -4.1290    3.8590   -0.7440 c         1 MOL      0.335511
    137 O20        -4.0660    4.9690   -1.2800 o         1 MOL     -0.489022
    138 C47        -3.7500    4.2820    1.6970 c3        1 MOL     -0.107751
    139 C48        -4.1770    3.5410    2.9780 c3        1 MOL      0.041479
    140 C49        -4.5050    2.1540    2.4560 c3        1 MOL     -0.247624
    141 H60        -5.6060    4.3010    0.6130 h1        1 MOL      0.107899
    142 H61        -2.7220    4.0050    1.4480 hc        1 MOL      0.074598
    143 H62        -3.8360    5.3520    1.8680 hc        1 MOL      0.074598
    144 H63        -3.4200    3.6680    3.7510 hc        1 MOL      0.015560
    145 H64        -5.1040    3.9840    3.3400 hc        1 MOL      0.015560
    146 H65        -3.5650    1.6330    2.2520 h1        1 MOL      0.115440
    147 H66        -5.0860    1.5320    3.1360 h1        1 MOL      0.115440
    148 N13        -3.7600    2.7010   -1.3250 n         1 MOL     -0.010632
    149 C50        -3.3550    2.5180   -2.7470 c3        1 MOL     -0.176341
    150 C51        -4.5630    2.7550   -3.6220 c         1 MOL      0.406564
    151 O21        -4.6290    3.8060   -4.2960 o         1 MOL     -0.544897
    152 C52        -2.7490    1.1270   -2.9410 c3        1 MOL      0.191449
    153 C53        -1.5910    0.7000   -1.9360 c3        1 MOL     -0.338498
    154 C54        -2.0850    0.1940   -0.5540 c         1 MOL      0.616140
    155 O22        -1.2800   -0.0440    0.3960 o         1 MOL     -0.648024
    156 O23        -3.2920   -0.0810   -0.4250 o         1 MOL     -0.648024
    157 H67        -3.6210    1.9460   -0.6750 hn        1 MOL      0.153391
    158 H68        -2.5720    3.2620   -2.8950 h1        1 MOL      0.097018
    159 H69        -2.3030    1.1580   -3.9410 hc        1 MOL     -0.029116
    160 H70        -3.4620    0.3270   -3.0830 hc        1 MOL     -0.029116
    161 H71        -0.8500    1.4850   -1.8330 hc        1 MOL      0.088321
    162 H72        -1.1120   -0.1590   -2.4110 hc        1 MOL      0.088321
    163 N14        -5.5430    1.9840   -3.4200 n         1 MOL     -0.186822
    164 C55        -6.9320    2.1310   -4.0170 c3        1 MOL     -0.118005
    165 H73        -7.6760    2.0910   -3.2210 h1        1 MOL      0.071848
    166 H74        -7.0070    3.0860   -4.5360 h1        1 MOL      0.071848
    167 H75        -7.1140    1.3190   -4.7220 h1        1 MOL      0.071848
    168 H76        -5.3280    1.2410   -2.7640 hn        1 MOL      0.217973
    169 Ca1         1.0570   -1.1610    1.3610 Ca        1 MOL      1.696121
    170 O24         2.6000   -1.3420   -0.8640 oh        1 MOL     -0.874739
    171 H77         2.7170   -1.7890   -1.7120 ho        1 MOL      0.425502
    172 H78         3.1570   -0.5640   -0.9320 ho        1 MOL      0.425502
    173 O25         2.5850   -3.0590    2.1780 oh        1 MOL     -0.874739
    174 H79         3.3380   -3.5520    1.8770 ho        1 MOL      0.425502
    175 H80         2.5340   -3.2480    3.1170 ho        1 MOL      0.425502
    176 O26         1.6280    1.3920    0.5000 oh        1 MOL     -0.874739
    177 H81         1.4190    2.2880    0.7720 ho        1 MOL      0.425502
    178 H82         2.4180    1.4780   -0.0360 ho        1 MOL      0.425502
@<TRIPOS>BOND
     1    1    2 1   
     2    1    4 1   
     3    1    5 1   
     4    1    6 1   
     5    2    3 2   
     6    2    7 1   
     7    7    8 1   
     8    7   15 1   
     9    8    9 1   
    10    8   11 1   
    11    8   16 1   
    12    9   10 2   
    13    9   19 1   
    14   11   12 1   
    15   11   17 1   
    16   11   18 1   
    17   12   13 1   
    18   12   14 1   
    19   19   20 1   
    20   19   24 1   
    21   20   21 1   
    22   20   23 1   
    23   20   25 1   
    24   21   22 2   
    25   21   29 1   
    26   23   26 1   
    27   23   27 1   
    28   23   28 1   
    29   29   30 1   
    30   29   37 1   
    31   30   31 1   
    32   30   33 1   
    33   30   38 1   
    34   31   32 2   
    35   31   41 1   
    36   33   34 1   
    37   33   39 1   
    38   33   40 1   
    39   34   35 1   
    40   34   36 1   
    41   41   42 1   
    42   41   45 1   
    43   42   43 1   
    44   42   46 1   
    45   42   47 1   
    46   43   44 2   
    47   43   48 1   
    48   48   49 1   
    49   48   56 1   
    50   49   50 1   
    51   49   52 1   
    52   49   57 1   
    53   50   51 2   
    54   50   62 1   
    55   52   53 1   
    56   52   58 1   
    57   52   59 1   
    58   53   54 1   
    59   53   55 2   
    60   54   60 1   
    61   54   61 1   
    62   62   63 1   
    63   62   66 1   
    64   63   64 1   
    65   63   67 1   
    66   63   68 1   
    67   64   65 2   
    68   64   69 1   
    69   69   70 1   
    70   69   76 1   
    71   70   71 1   
    72   70   73 1   
    73   70   77 1   
    74   71   72 2   
    75   71   83 1   
    76   73   74 1   
    77   73   75 1   
    78   73   78 1   
    79   74   80 1   
    80   74   81 1   
    81   74   82 1   
    82   75   79 1   
    83   83   84 1   
    84   83   91 1   
    85   84   85 1   
    86   84   87 1   
    87   84   92 1   
    88   85   86 2   
    89   85  102 1   
    90   87   88 1   
    91   87   89 1   
    92   87   93 1   
    93   88   90 1   
    94   88   94 1   
    95   88   95 1   
    96   89   96 1   
    97   89   97 1   
    98   89   98 1   
    99   90   99 1   
   100   90  100 1   
   101   90  101 1   
   102  102  103 1   
   103  102  110 1   
   104  103  104 1   
   105  103  106 1   
   106  103  111 1   
   107  104  105 2   
   108  104  114 1   
   109  106  107 1   
   110  106  112 1   
   111  106  113 1   
   112  107  108 1   
   113  107  109 1   
   114  114  115 1   
   115  114  125 1   
   116  115  116 1   
   117  115  118 1   
   118  115  126 1   
   119  116  117 2   
   120  116  134 1   
   121  118  119 1   
   122  118  127 1   
   123  118  128 1   
   124  119  120 ar  
   125  119  121 ar  
   126  120  122 ar  
   127  120  129 1   
   128  121  123 ar  
   129  121  130 1   
   130  122  124 ar  
   131  122  131 1   
   132  123  124 ar  
   133  123  132 1   
   134  124  133 1   
   135  134  135 1   
   136  134  140 1   
   137  135  136 1   
   138  135  138 1   
   139  135  141 1   
   140  136  137 2   
   141  136  148 1   
   142  138  139 1   
   143  138  142 1   
   144  138  143 1   
   145  139  140 1   
   146  139  144 1   
   147  139  145 1   
   148  140  146 1   
   149  140  147 1   
   150  148  149 1   
   151  148  157 1   
   152  149  150 1   
   153  149  152 1   
   154  149  158 1   
   155  150  151 2   
   156  150  163 1   
   157  152  153 1   
   158  152  159 1   
   159  152  160 1   
   160  153  154 1   
   161  153  161 1   
   162  153  162 1   
   163  154  155 1   
   164  154  156 1   
   165  163  164 1   
   166  163  168 1   
   167  164  165 1   
   168  164  166 1   
   169  164  167 1   
   170  170  171 1   
   171  170  172 1   
   172  173  174 1   
   173  173  175 1   
   174  176  177 1   
   175  176  178 1   
@<TRIPOS>SUBSTRUCTURE
     1 MOL         1 TEMP              0 ****  ****    0 ROOT
