@<TRIPOS>MOLECULE
MOL
  195   189     1     0     0
SMALL
resp


@<TRIPOS>ATOM
      1 C1          6.0370    2.5020    5.7360 c3        1 MOL     -0.230205
      2 C2          5.5210    2.0760    4.3170 c         1 MOL      0.769395
      3 O1          5.1360    2.9370    3.5230 o         1 MOL     -0.625718
      4 H1          6.3330    3.5510    5.7140 hc        1 MOL      0.056381
      5 H2          5.2420    2.3650    6.4690 hc        1 MOL      0.056381
      6 H3          6.8950    1.8890    6.0110 hc        1 MOL      0.056381
      7 N1          5.6210    0.8010    3.8840 n         1 MOL     -0.689134
      8 C3          5.3240    0.2590    2.5030 c3        1 MOL      0.931377
      9 C4          3.7960    0.1160    2.0830 c         1 MOL      0.022530
     10 O2          3.5750   -0.7840    1.3090 o         1 MOL     -0.470143
     11 C5          5.9240   -1.1670    2.4680 c3        1 MOL     -0.309167
     12 C6          7.3490   -1.4170    2.9360 c         1 MOL      0.686761
     13 O3          8.1670   -1.9070    2.1220 o         1 MOL     -0.688911
     14 O4          7.7110   -1.1050    4.0800 o         1 MOL     -0.688911
     15 H4          6.0450    0.1380    4.5060 hn        1 MOL      0.218938
     16 H5          5.8240    0.8240    1.7270 h1        1 MOL     -0.142765
     17 H6          5.8720   -1.5180    1.4360 hc        1 MOL      0.009979
     18 H7          5.2740   -1.7820    3.0920 hc        1 MOL      0.009979
     19 N2          2.9070    0.8310    2.7160 n         1 MOL     -0.441078
     20 C7          1.4520    0.6940    2.6100 c3        1 MOL      0.351533
     21 C8          0.7310    1.9580    2.1560 c         1 MOL      0.388862
     22 O5          1.1100    2.9840    2.7190 o         1 MOL     -0.517293
     23 C9          0.9590    0.2800    3.9470 c3        1 MOL     -0.366218
     24 C10         1.2860   -1.1800    4.2600 c3        1 MOL      0.222988
     25 C11         0.4440   -1.9230    5.3080 c3        1 MOL     -0.169257
     26 C12         0.7520   -3.4310    5.4080 c3        1 MOL     -0.008193
     27 N3          2.1750   -3.6720    5.8010 n4        1 MOL     -0.448651
     28 H8          3.2020    1.6150    3.2740 hn        1 MOL      0.234509
     29 H9          1.2220   -0.0980    1.8930 h1        1 MOL      0.276360
     30 H10        -0.1260    0.3120    3.9540 hc        1 MOL      0.098132
     31 H11         1.3550    1.0110    4.6580 hc        1 MOL      0.098132
     32 H12         2.3450   -1.1720    4.5130 hc        1 MOL     -0.042781
     33 H13         1.1290   -1.8210    3.3940 hc        1 MOL     -0.042781
     34 H14        -0.5870   -1.8310    4.9760 hc        1 MOL      0.073626
     35 H15         0.5720   -1.3950    6.2500 hc        1 MOL      0.073626
     36 H16         0.6250   -3.7060    4.3560 hx        1 MOL      0.115981
     37 H17         0.0380   -4.0080    5.9910 hx        1 MOL      0.115981
     38 H18         2.8530   -3.6260    5.0480 hn        1 MOL      0.353409
     39 H19         2.3400   -2.9720    6.5110 hn        1 MOL      0.353409
     40 H20         2.3160   -4.5990    6.1830 hn        1 MOL      0.353409
     41 N4         -0.2310    1.9710    1.2670 n         1 MOL     -0.246403
     42 C13        -0.8220    0.8080    0.6380 c3        1 MOL     -0.329904
     43 C14        -1.3450   -0.3660    1.5470 c         1 MOL      0.569836
     44 O6         -0.8230   -1.4610    1.4390 o         1 MOL     -0.535270
     45 C15        -0.0110    0.3720   -0.6280 c3        1 MOL     -0.150351
     46 C16         0.1140    1.4850   -1.7070 c         1 MOL      0.486121
     47 O7         -0.5830    2.5160   -1.6160 o         1 MOL     -0.705849
     48 O8          0.8970    1.3580   -2.7100 o         1 MOL     -0.705849
     49 H21        -0.4930    2.8620    0.8890 hn        1 MOL      0.213956
     50 H22        -1.7780    1.2110    0.3040 h1        1 MOL      0.096101
     51 H23        -0.5090   -0.5210   -0.9980 hc        1 MOL      0.175339
     52 H24         0.9660   -0.0440   -0.3930 hc        1 MOL      0.175339
     53 N5         -2.3790   -0.0970    2.4140 n         1 MOL     -0.502223
     54 C17        -3.1010    1.1720    2.5290 c3        1 MOL      0.141460
     55 C18        -4.3900    0.9710    3.3920 c         1 MOL      0.502077
     56 O9         -4.4050    0.1080    4.3160 o         1 MOL     -0.557842
     57 H25        -2.6460   -0.8950    2.9780 hn        1 MOL      0.281521
     58 H26        -3.3860    1.4270    1.5100 h1        1 MOL      0.062966
     59 H27        -2.5150    1.9900    2.9620 h1        1 MOL      0.062966
     60 N6         -5.4160    1.7710    3.2390 n         1 MOL     -0.359824
     61 C19        -5.5330    2.8350    2.2130 c3        1 MOL     -0.137439
     62 C20        -6.5920    2.4780    1.1650 c         1 MOL      0.528502
     63 O10        -7.3710    1.6120    1.4350 o         1 MOL     -0.460110
     64 C21        -6.0130    4.1620    2.8580 c3        1 MOL     -0.111386
     65 C22        -7.0570    4.0760    3.9640 c         1 MOL      0.780572
     66 O11        -6.7280    3.7420    5.1060 o         1 MOL     -0.697995
     67 O12        -8.1660    4.5250    3.7260 o         1 MOL     -0.697995
     68 H28        -6.3320    1.5760    3.6260 hn        1 MOL      0.314341
     69 H29        -4.6200    3.1030    1.6950 h1        1 MOL      0.050623
     70 H30        -6.4000    4.8440    2.1080 hc        1 MOL      0.002974
     71 H31        -5.1930    4.6830    3.3590 hc        1 MOL      0.002974
     72 N7         -6.4800    3.0020   -0.0450 n         1 MOL     -0.237744
     73 C23        -7.3040    2.6860   -1.2090 c3        1 MOL     -0.284531
     74 C24        -7.3030    1.2880   -1.7800 c         1 MOL      0.615782
     75 O13        -8.2740    0.8240   -2.3540 o         1 MOL     -0.513990
     76 H32        -5.6840    3.6130   -0.2180 hn        1 MOL      0.227197
     77 H33        -7.0320    3.4090   -1.9750 h1        1 MOL      0.126499
     78 H34        -8.3520    2.9550   -1.0430 h1        1 MOL      0.126499
     79 N8         -6.2330    0.5310   -1.3550 n         1 MOL     -0.421718
     80 C25        -5.9070   -0.8070   -1.7250 c3        1 MOL      0.023084
     81 C26        -4.9540   -1.3600   -0.6230 c         1 MOL      0.572342
     82 O14        -4.1390   -0.6370   -0.0330 o         1 MOL     -0.500779
     83 C27        -5.1860   -0.9660   -3.0590 c3        1 MOL      0.361253
     84 C28        -6.1390   -0.4480   -4.1460 c3        1 MOL     -0.323846
     85 O15        -4.8780   -2.2750   -3.4700 oh        1 MOL     -0.614671
     86 H35        -5.7030    0.9320   -0.6030 hn        1 MOL      0.135735
     87 H36        -6.8080   -1.4120   -1.5850 h1        1 MOL      0.095944
     88 H37        -4.2520   -0.4070   -3.0170 h1        1 MOL     -0.055570
     89 H38        -4.0600   -2.2250   -3.9760 ho        1 MOL      0.418655
     90 H39        -6.2560    0.6310   -4.1780 hc        1 MOL      0.082569
     91 H40        -5.7630   -0.7610   -5.1200 hc        1 MOL      0.082569
     92 H41        -7.1240   -0.8130   -3.8440 hc        1 MOL      0.082569
     93 N9         -5.0660   -2.6010   -0.4420 n         1 MOL     -0.260791
     94 C29        -4.2800   -3.4270    0.4190 c3        1 MOL     -0.431068
     95 C30        -3.0300   -3.9600   -0.4070 c         1 MOL      0.440596
     96 O16        -2.3800   -4.8520    0.1680 o         1 MOL     -0.537770
     97 C31        -5.0750   -4.6000    1.1200 c3        1 MOL      0.309023
     98 C32        -5.7720   -5.5130    0.0820 c3        1 MOL     -0.166616
     99 C33        -6.0660   -4.0020    2.0690 c3        1 MOL     -0.180738
    100 C34        -6.7910   -6.4900    0.7500 c3        1 MOL     -0.118623
    101 H42        -5.7920   -3.1420   -0.8920 hn        1 MOL      0.230233
    102 H43        -3.9400   -2.7290    1.1880 h1        1 MOL      0.207568
    103 H44        -4.4010   -5.1680    1.7510 hc        1 MOL      0.023213
    104 H45        -4.9560   -6.0900   -0.3520 hc        1 MOL      0.071571
    105 H46        -6.3450   -4.9560   -0.6580 hc        1 MOL      0.071571
    106 H47        -6.4970   -4.7420    2.7420 hc        1 MOL      0.043500
    107 H48        -5.6610   -3.1690    2.6500 hc        1 MOL      0.043500
    108 H49        -6.8710   -3.5050    1.5300 hc        1 MOL      0.043500
    109 H50        -6.3480   -6.8580    1.6720 hc        1 MOL      0.039247
    110 H51        -7.8090   -6.1300    0.9110 hc        1 MOL      0.039247
    111 H52        -6.9850   -7.3540    0.1120 hc        1 MOL      0.039247
    112 N10        -2.7440   -3.5030   -1.5660 n         1 MOL      0.017574
    113 C35        -1.6500   -4.0550   -2.3690 c3        1 MOL     -0.207470
    114 C36        -0.3060   -4.2240   -1.7560 c         1 MOL      0.507831
    115 O17         0.4230   -5.0870   -2.2220 o         1 MOL     -0.572123
    116 C37        -1.4870   -3.2980   -3.7220 c3        1 MOL      0.300697
    117 C38        -1.3820   -1.7550   -3.7120 c3        1 MOL     -0.181692
    118 O18        -2.4940   -3.7200   -4.5560 oh        1 MOL     -0.646507
    119 H53        -3.2970   -2.8170   -2.0650 hn        1 MOL      0.012573
    120 H54        -1.9170   -5.0730   -2.6480 h1        1 MOL      0.095986
    121 H55        -0.5890   -3.6610   -4.2250 h1        1 MOL      0.047865
    122 H56        -2.3490   -4.6350   -4.8200 ho        1 MOL      0.418133
    123 H57        -2.2310   -1.3970   -3.1300 hc        1 MOL      0.069784
    124 H58        -0.5110   -1.3680   -3.1920 hc        1 MOL      0.069784
    125 H59        -1.3420   -1.3740   -4.7320 hc        1 MOL      0.069784
    126 N11         0.0460   -3.2950   -0.8760 n         1 MOL     -0.193648
    127 C39         1.3910   -3.0630   -0.4400 c3        1 MOL      0.109674
    128 C40         2.2390   -2.4510   -1.5910 c         1 MOL      0.285537
    129 O19         1.8740   -2.5800   -2.7730 o         1 MOL     -0.539216
    130 C41         1.9910   -4.3200    0.2050 c3        1 MOL      0.404555
    131 C42         1.1720   -5.2400    1.1590 c3        1 MOL     -0.302695
    132 O20         3.1060   -3.8450    0.9600 oh        1 MOL     -0.617160
    133 H60        -0.6180   -2.5550   -0.6750 hn        1 MOL      0.118729
    134 H61         1.3400   -2.4090    0.4240 h1        1 MOL     -0.004673
    135 H62         2.2980   -5.0170   -0.5710 h1        1 MOL     -0.015507
    136 H63         3.8250   -4.4730    0.9800 ho        1 MOL      0.369394
    137 H64         0.8020   -4.6900    2.0250 hc        1 MOL      0.065228
    138 H65         0.3180   -5.6230    0.6010 hc        1 MOL      0.065228
    139 H66         1.8250   -6.0060    1.5780 hc        1 MOL      0.065228
    140 N12         3.3010   -1.7800   -1.2000 n         1 MOL     -0.058748
    141 C43         4.3090   -1.3730   -2.1260 c3        1 MOL     -0.155187
    142 C44         4.4990    0.1160   -2.1370 c         1 MOL      0.591782
    143 O21         5.1610    0.6110   -3.0770 o         1 MOL     -0.619219
    144 C45         5.6390   -2.1140   -1.6760 c3        1 MOL      0.102785
    145 C46         5.7160   -3.6750   -1.5590 c3        1 MOL     -0.129124
    146 C47         5.3470   -4.4310   -2.8930 c3        1 MOL     -0.146631
    147 C48         6.4200   -4.4680   -3.9460 c3        1 MOL      0.132578
    148 N13         5.9870   -5.0350   -5.2160 n4        1 MOL     -0.252911
    149 H67         3.3970   -1.5490   -0.2180 hn        1 MOL      0.137122
    150 H68         3.9630   -1.6860   -3.1120 h1        1 MOL      0.097361
    151 H69         5.9730   -1.6650   -0.7400 hc        1 MOL      0.014501
    152 H70         6.3570   -1.7370   -2.3990 hc        1 MOL      0.014501
    153 H71         4.9430   -3.8930   -0.8170 hc        1 MOL      0.064820
    154 H72         6.6390   -4.1000   -1.1540 hc        1 MOL      0.064820
    155 H73         4.4330   -4.0630   -3.3510 hc        1 MOL      0.061170
    156 H74         5.0710   -5.4720   -2.6980 hc        1 MOL      0.061170
    157 H75         7.1940   -5.2030   -3.7180 hx        1 MOL      0.048072
    158 H76         6.8380   -3.4940   -4.1970 hx        1 MOL      0.048072
    159 H77         5.5420   -5.9390   -5.1300 hn        1 MOL      0.273361
    160 H78         5.2540   -4.4130   -5.5300 hn        1 MOL      0.273361
    161 H79         6.7820   -5.1200   -5.8310 hn        1 MOL      0.273361
    162 N14         4.1130    0.8660   -1.1090 n         1 MOL     -0.025053
    163 C49         4.3700    2.3150   -1.0270 c3        1 MOL     -0.045132
    164 C50         5.8900    2.6850   -0.7980 c         1 MOL      0.259008
    165 O22         6.6590    2.0530   -0.0280 o         1 MOL     -0.439764
    166 C51         3.3510    2.9400   -0.0470 c3        1 MOL      0.327333
    167 C52         3.4460    4.4500   -0.1600 c3        1 MOL     -0.706533
    168 C53         3.2520    4.9570   -1.5440 c         1 MOL      0.764646
    169 O23         4.1580    5.5480   -2.1140 o         1 MOL     -0.703949
    170 O24         2.2150    4.7990   -2.1570 o         1 MOL     -0.703949
    171 H80         3.6960    0.4100   -0.3080 hn        1 MOL     -0.003918
    172 H81         4.1590    2.6000   -2.0540 h1        1 MOL      0.080881
    173 H82         3.6540    2.6850    0.9720 hc        1 MOL     -0.022070
    174 H83         2.3600    2.6770   -0.4150 hc        1 MOL     -0.022070
    175 H84         4.4590    4.7650    0.1180 hc        1 MOL      0.194567
    176 H85         2.6320    4.9140    0.3920 hc        1 MOL      0.194567
    177 N15         6.3390    3.6770   -1.5820 n         1 MOL     -0.178664
    178 C54         7.6830    4.2660   -1.5740 c3        1 MOL      0.051884
    179 H86         7.6120    5.3290   -1.3450 h1        1 MOL      0.028870
    180 H87         8.2920    3.7730   -0.8160 h1        1 MOL      0.028870
    181 H88         8.1430    4.1360   -2.5530 h1        1 MOL      0.028870
    182 H89         5.5790    4.0770   -2.1240 hn        1 MOL      0.228640
    183 Ca1        -0.3360    4.7310   -2.6560 Ca        1 MOL      1.781648
    184 O25        -0.7970    2.7740   -4.4440 oh        1 MOL     -0.905561
    185 H90        -0.3630    2.0330   -4.0160 ho        1 MOL      0.449164
    186 H91        -1.1960    2.3950   -5.2270 ho        1 MOL      0.449164
    187 O26        -2.1100    5.6140   -4.5150 oh        1 MOL     -0.905561
    188 H92        -2.3770    6.5010   -4.2710 ho        1 MOL      0.449164
    189 H93        -2.5240    5.4690   -5.3750 ho        1 MOL      0.449164
    190 O27         0.0920    7.2730   -2.2200 oh        1 MOL     -0.905561
    191 H94         0.5900    7.3870   -3.0330 ho        1 MOL      0.449164
    192 H95         0.2400    8.0840   -1.7350 ho        1 MOL      0.449164
    193 O28         0.8380    6.0710   -4.7050 oh        1 MOL     -0.905561
    194 H96         0.4110    5.7140   -5.4840 ho        1 MOL      0.449164
    195 H97         1.3600    6.7990   -5.0310 ho        1 MOL      0.449164
@<TRIPOS>BOND
     1    1    2 1   
     2    1    4 1   
     3    1    5 1   
     4    1    6 1   
     5    2    3 2   
     6    2    7 1   
     7    7    8 1   
     8    7   15 1   
     9    8    9 1   
    10    8   11 1   
    11    8   16 1   
    12    9   10 2   
    13    9   19 1   
    14   11   12 1   
    15   11   17 1   
    16   11   18 1   
    17   12   13 1   
    18   12   14 1   
    19   19   20 1   
    20   19   28 1   
    21   20   21 1   
    22   20   23 1   
    23   20   29 1   
    24   21   22 2   
    25   21   41 1   
    26   23   24 1   
    27   23   30 1   
    28   23   31 1   
    29   24   25 1   
    30   24   32 1   
    31   24   33 1   
    32   25   26 1   
    33   25   34 1   
    34   25   35 1   
    35   26   27 1   
    36   26   36 1   
    37   26   37 1   
    38   27   38 1   
    39   27   39 1   
    40   27   40 1   
    41   41   42 1   
    42   41   49 1   
    43   42   43 1   
    44   42   45 1   
    45   42   50 1   
    46   43   44 2   
    47   43   53 1   
    48   45   46 1   
    49   45   51 1   
    50   45   52 1   
    51   46   47 1   
    52   46   48 1   
    53   53   54 1   
    54   53   57 1   
    55   54   55 1   
    56   54   58 1   
    57   54   59 1   
    58   55   56 2   
    59   55   60 1   
    60   60   61 1   
    61   60   68 1   
    62   61   62 1   
    63   61   64 1   
    64   61   69 1   
    65   62   63 2   
    66   62   72 1   
    67   64   65 1   
    68   64   70 1   
    69   64   71 1   
    70   65   66 1   
    71   65   67 1   
    72   72   73 1   
    73   72   76 1   
    74   73   74 1   
    75   73   77 1   
    76   73   78 1   
    77   74   75 2   
    78   74   79 1   
    79   79   80 1   
    80   79   86 1   
    81   80   81 1   
    82   80   83 1   
    83   80   87 1   
    84   81   82 2   
    85   81   93 1   
    86   83   84 1   
    87   83   85 1   
    88   83   88 1   
    89   84   90 1   
    90   84   91 1   
    91   84   92 1   
    92   85   89 1   
    93   93   94 1   
    94   93  101 1   
    95   94   95 1   
    96   94   97 1   
    97   94  102 1   
    98   95   96 2   
    99   95  112 1   
   100   97   98 1   
   101   97   99 1   
   102   97  103 1   
   103   98  100 1   
   104   98  104 1   
   105   98  105 1   
   106   99  106 1   
   107   99  107 1   
   108   99  108 1   
   109  100  109 1   
   110  100  110 1   
   111  100  111 1   
   112  112  113 1   
   113  112  119 1   
   114  113  114 1   
   115  113  116 1   
   116  113  120 1   
   117  114  115 2   
   118  114  126 1   
   119  116  117 1   
   120  116  118 1   
   121  116  121 1   
   122  117  123 1   
   123  117  124 1   
   124  117  125 1   
   125  118  122 1   
   126  126  127 1   
   127  126  133 1   
   128  127  128 1   
   129  127  130 1   
   130  127  134 1   
   131  128  129 2   
   132  128  140 1   
   133  130  131 1   
   134  130  132 1   
   135  130  135 1   
   136  131  137 1   
   137  131  138 1   
   138  131  139 1   
   139  132  136 1   
   140  140  141 1   
   141  140  149 1   
   142  141  142 1   
   143  141  144 1   
   144  141  150 1   
   145  142  143 2   
   146  142  162 1   
   147  144  145 1   
   148  144  151 1   
   149  144  152 1   
   150  145  146 1   
   151  145  153 1   
   152  145  154 1   
   153  146  147 1   
   154  146  155 1   
   155  146  156 1   
   156  147  148 1   
   157  147  157 1   
   158  147  158 1   
   159  148  159 1   
   160  148  160 1   
   161  148  161 1   
   162  162  163 1   
   163  162  171 1   
   164  163  164 1   
   165  163  166 1   
   166  163  172 1   
   167  164  165 2   
   168  164  177 1   
   169  166  167 1   
   170  166  173 1   
   171  166  174 1   
   172  167  168 1   
   173  167  175 1   
   174  167  176 1   
   175  168  169 1   
   176  168  170 1   
   177  177  178 1   
   178  177  182 1   
   179  178  179 1   
   180  178  180 1   
   181  178  181 1   
   182  184  185 1   
   183  184  186 1   
   184  187  188 1   
   185  187  189 1   
   186  190  191 1   
   187  190  192 1   
   188  193  194 1   
   189  193  195 1   
@<TRIPOS>SUBSTRUCTURE
     1 MOL         1 TEMP              0 ****  ****    0 ROOT
