@<TRIPOS>MOLECULE
MOL
  184   179     1     0     0
SMALL
resp


@<TRIPOS>ATOM
      1 C1          3.3790   -2.6350    4.2760 c3        1 MOL     -0.453418
      2 C2          4.7570   -2.3480    3.5730 c         1 MOL      0.645646
      3 O1          5.3290   -1.2190    3.5030 o         1 MOL     -0.567044
      4 H1          2.5890   -2.6730    3.5240 hc        1 MOL      0.116562
      5 H2          3.4280   -3.5910    4.7980 hc        1 MOL      0.116562
      6 H3          3.1620   -1.8400    4.9890 hc        1 MOL      0.116562
      7 N1          5.3390   -3.4300    3.0290 n         1 MOL     -0.553336
      8 C3          6.6670   -3.3640    2.3080 c3        1 MOL      0.244468
      9 C4          6.6110   -2.8810    0.8750 c         1 MOL      0.299633
     10 O2          5.5680   -2.5450    0.3390 o         1 MOL     -0.481263
     11 C5          7.3560   -4.7600    2.3530 c3        1 MOL     -0.093643
     12 C6          8.8050   -4.9950    1.8810 c         1 MOL      0.650600
     13 O3          9.6060   -4.0160    2.0100 o         1 MOL     -0.685120
     14 O4          9.1120   -6.0930    1.3450 o         1 MOL     -0.685120
     15 H4          4.8150   -4.2960    3.0700 hn        1 MOL      0.293125
     16 H5          7.2610   -2.6650    2.8950 h1        1 MOL      0.059114
     17 H6          6.7840   -5.5720    1.8990 hc        1 MOL     -0.022629
     18 H7          7.2690   -4.9810    3.4120 hc        1 MOL     -0.022629
     19 N2          7.8000   -2.7400    0.3170 n         1 MOL     -0.217999
     20 C7          8.1410   -2.5180   -1.1260 c3        1 MOL      0.018373
     21 C8          7.9730   -1.0100   -1.4440 c         1 MOL      0.513420
     22 O5          7.4540   -0.6100   -2.4870 o         1 MOL     -0.600592
     23 C9          9.6350   -2.9530   -1.3080 c3        1 MOL     -0.232068
     24 H8          8.5910   -2.8470    0.9390 hn        1 MOL      0.210889
     25 H9          7.5070   -3.1800   -1.7160 h1        1 MOL      0.058313
     26 H10        10.3020   -2.2240   -0.8620 hc        1 MOL      0.078309
     27 H11         9.9710   -3.9550   -1.0430 hc        1 MOL      0.078309
     28 H12         9.8210   -2.8770   -2.3760 hc        1 MOL      0.078309
     29 N3          8.2740   -0.1560   -0.4720 n         1 MOL     -0.247242
     30 C10         7.9520    1.2790   -0.3830 c3        1 MOL      0.217524
     31 C11         6.5330    1.5350    0.2010 c         1 MOL      0.285663
     32 O6          6.2260    2.6290    0.7830 o         1 MOL     -0.546439
     33 C12         8.9830    2.1250    0.3120 c3        1 MOL     -0.160573
     34 C13        10.3980    1.6940   -0.1820 c         1 MOL      0.626836
     35 O7         10.8250    2.2710   -1.1780 o         1 MOL     -0.694305
     36 O8         11.0240    0.7300    0.3700 o         1 MOL     -0.694305
     37 H13         8.8010   -0.5280    0.3120 hn        1 MOL      0.173384
     38 H14         7.9180    1.6900   -1.3900 h1        1 MOL      0.053363
     39 H15         8.9370    2.0240    1.3980 hc        1 MOL      0.022106
     40 H16         8.8280    3.1700    0.0560 hc        1 MOL      0.022106
     41 N4          5.6960    0.5230    0.4350 n         1 MOL     -0.052134
     42 C14         4.2590    0.7950    0.7230 c3        1 MOL     -0.169093
     43 C15         3.4930    1.2160   -0.5030 c         1 MOL      0.777733
     44 O9          3.9830    0.9210   -1.5940 o         1 MOL     -0.559482
     45 H17         5.8460   -0.4140    0.0930 hn        1 MOL      0.048157
     46 H18         4.0770    1.6240    1.4100 h1        1 MOL      0.080968
     47 H19         3.7400   -0.1010    1.0720 h1        1 MOL      0.080968
     48 N5          2.3450    1.8140   -0.4110 n         1 MOL     -0.646746
     49 C16         1.7000    2.5130   -1.5720 c3        1 MOL      0.119516
     50 C17         1.5600    4.0120   -1.3280 c         1 MOL      0.702932
     51 O10         1.4880    4.4440   -0.1980 o         1 MOL     -0.590297
     52 C18         0.4660    1.7740   -1.9160 c3        1 MOL     -0.316829
     53 C19        -0.2770    2.0770   -3.1940 c         1 MOL      0.647517
     54 N6         -1.3780    1.4720   -3.4310 n         1 MOL     -0.604408
     55 O11         0.1040    2.8300   -4.0770 o         1 MOL     -0.630497
     56 H20         2.0350    2.2490    0.4460 hn        1 MOL      0.278174
     57 H21         2.4500    2.5260   -2.3670 h1        1 MOL     -0.004143
     58 H22        -0.2370    1.8070   -1.0890 hc        1 MOL      0.136230
     59 H23         0.7370    0.7220   -1.9510 hc        1 MOL      0.136230
     60 H24        -1.6110    0.6490   -2.8970 hn        1 MOL      0.304896
     61 H25        -1.6790    1.6790   -4.3750 hn        1 MOL      0.304896
     62 N7          1.4810    4.7750   -2.4010 n         1 MOL     -0.452797
     63 C20         1.4580    6.2340   -2.3380 c3        1 MOL     -0.057088
     64 C21         0.1180    6.7240   -1.8520 c         1 MOL      0.523082
     65 O12        -0.8440    6.6480   -2.5100 o         1 MOL     -0.472597
     66 H26         1.2990    4.3020   -3.2660 hn        1 MOL      0.326043
     67 H27         1.5510    6.6120   -3.3600 h1        1 MOL      0.073852
     68 H28         2.2800    6.7220   -1.8180 h1        1 MOL      0.073852
     69 N8          0.0960    7.2060   -0.5690 n         1 MOL     -0.497939
     70 C22        -1.1040    7.7170    0.1840 c3        1 MOL     -0.040741
     71 C23        -2.0100    6.6710    0.8710 c         1 MOL      0.354123
     72 O13        -3.2010    6.9060    1.1480 o         1 MOL     -0.520833
     73 C24        -0.6190    8.7240    1.2060 c3        1 MOL      0.392220
     74 C25         0.2310    8.1080    2.3480 c3        1 MOL     -0.373721
     75 O14         0.0530    9.7360    0.5020 oh        1 MOL     -0.608670
     76 H29         1.0170    7.4060   -0.2190 hn        1 MOL      0.275876
     77 H30        -1.7590    8.1990   -0.5440 h1        1 MOL      0.132008
     78 H31        -1.5350    9.1530    1.6240 h1        1 MOL      0.022194
     79 H32         0.9580    9.4330    0.5000 ho        1 MOL      0.370656
     80 H33         0.4740    8.9510    2.9970 hc        1 MOL      0.092746
     81 H34        -0.2480    7.2680    2.8550 hc        1 MOL      0.092746
     82 H35         1.2250    7.8290    1.9910 hc        1 MOL      0.092746
     83 N9         -1.4290    5.4050    1.0260 n         1 MOL     -0.007205
     84 C26        -2.1150    4.2540    1.5300 c3        1 MOL     -0.055104
     85 C27        -2.2930    3.1480    0.4060 c         1 MOL      0.486604
     86 O15        -2.1150    3.3610   -0.8200 o         1 MOL     -0.497528
     87 C28        -1.4780    3.6390    2.8250 c3        1 MOL      0.010211
     88 C29         0.0400    3.3030    2.5290 c3        1 MOL     -0.010034
     89 C30        -1.6980    4.5380    4.0930 c3        1 MOL     -0.308715
     90 C31         0.6460    2.4850    3.6850 c3        1 MOL     -0.202253
     91 H36        -0.4570    5.3420    0.7550 hn        1 MOL      0.105204
     92 H37        -3.1300    4.5340    1.8030 h1        1 MOL      0.075171
     93 H38        -1.9030    2.6930    3.1550 hc        1 MOL      0.050297
     94 H39         0.5890    4.2300    2.3550 hc        1 MOL      0.065759
     95 H40         0.0500    2.7370    1.6010 hc        1 MOL      0.065759
     96 H41        -2.7260    4.9110    4.1220 hc        1 MOL      0.079706
     97 H42        -1.4970    3.9490    4.9920 hc        1 MOL      0.079706
     98 H43        -0.9940    5.3680    4.0770 hc        1 MOL      0.079706
     99 H44         0.1520    1.5260    3.7890 hc        1 MOL      0.059055
    100 H45         1.6450    2.2490    3.3160 hc        1 MOL      0.059055
    101 H46         0.9010    2.9930    4.6160 hc        1 MOL      0.059055
    102 N10        -2.6800    1.9280    0.8060 n         1 MOL     -0.514063
    103 C32        -2.7750    0.7940   -0.0630 c3        1 MOL      0.099917
    104 C33        -4.2130    0.2250   -0.1850 c         1 MOL      0.594717
    105 O16        -4.3110   -0.9240   -0.5120 o         1 MOL     -0.495337
    106 C34        -1.6530   -0.1820    0.3280 c3        1 MOL     -0.038089
    107 C35        -1.3240   -1.2380   -0.7320 c         1 MOL      0.459333
    108 O17        -0.7340   -2.3060   -0.3990 o         1 MOL     -0.615242
    109 O18        -1.4060   -0.9840   -1.9650 o         1 MOL     -0.615242
    110 H47        -2.9440    1.8040    1.7780 hn        1 MOL      0.253449
    111 H48        -2.5600    1.1950   -1.0550 h1        1 MOL      0.020220
    112 H49        -1.9140   -0.8110    1.1840 hc        1 MOL      0.030243
    113 H50        -0.7130    0.3300    0.5350 hc        1 MOL      0.030243
    114 N11        -5.3180    0.9690    0.0350 n         1 MOL     -0.433862
    115 C36        -6.6290    0.3500   -0.2960 c3        1 MOL      0.062775
    116 C37        -6.9860   -0.8830    0.4810 c         1 MOL      0.191906
    117 O19        -6.9880   -0.7920    1.6930 o         1 MOL     -0.414636
    118 C38        -7.7720    1.3540   -0.1630 c3        1 MOL     -0.117998
    119 C39        -9.1410    0.8100   -0.3940 ca        1 MOL      0.004267
    120 C40        -9.5180    0.3170   -1.6650 ca        1 MOL     -0.122230
    121 C41        -9.9600    0.4480    0.7280 ca        1 MOL     -0.122230
    122 C42       -10.5470   -0.5940   -1.8100 ca        1 MOL     -0.158003
    123 C43       -11.0130   -0.4500    0.5710 ca        1 MOL     -0.158003
    124 C44       -11.2930   -0.9910   -0.6980 ca        1 MOL     -0.054872
    125 H51        -5.2860    1.9450    0.2780 hn        1 MOL      0.283283
    126 H52        -6.6580    0.0520   -1.3480 h1        1 MOL      0.048341
    127 H53        -7.6890    2.1040   -0.9500 hc        1 MOL      0.082407
    128 H54        -7.7590    1.9510    0.7510 hc        1 MOL      0.082407
    129 H55        -8.8990    0.4230   -2.5420 ha        1 MOL      0.116860
    130 H56        -9.6500    0.7620    1.7080 ha        1 MOL      0.116860
    131 H57       -10.7190   -1.1300   -2.7380 ha        1 MOL      0.121307
    132 H58       -11.5450   -0.8270    1.4230 ha        1 MOL      0.121307
    133 H59       -12.1350   -1.6430   -0.8830 ha        1 MOL      0.081341
    134 N12        -7.3830   -2.0800   -0.1520 n         1 MOL      0.150445
    135 C45        -7.9120   -3.2470    0.6700 c3        1 MOL     -0.167176
    136 C46        -6.8550   -3.9550    1.5660 c         1 MOL      0.355174
    137 O20        -7.1820   -4.6920    2.4600 o         1 MOL     -0.519966
    138 C47        -8.3470   -4.1760   -0.4170 c3        1 MOL      0.191252
    139 C48        -7.4890   -3.9050   -1.5950 c3        1 MOL      0.012501
    140 C49        -7.2420   -2.4230   -1.5220 c3        1 MOL     -0.154207
    141 H60        -8.7830   -2.9630    1.2610 h1        1 MOL      0.114271
    142 H61        -8.4430   -5.2320   -0.1690 hc        1 MOL     -0.039888
    143 H62        -9.3590   -3.8230   -0.6190 hc        1 MOL     -0.039888
    144 H63        -6.5510   -4.4760   -1.5850 hc        1 MOL      0.006367
    145 H64        -8.1050   -4.2570   -2.4260 hc        1 MOL      0.006367
    146 H65        -6.2350   -2.1880   -1.8820 h1        1 MOL      0.055611
    147 H66        -7.8770   -1.8630   -2.2040 h1        1 MOL      0.055611
    148 N13        -5.6010   -3.7460    1.2800 n         1 MOL     -0.072781
    149 C50        -4.4020   -4.1780    2.0720 c3        1 MOL     -0.356996
    150 C51        -4.0380   -3.2170    3.2370 c         1 MOL      0.536317
    151 O21        -3.2570   -3.6100    4.0620 o         1 MOL     -0.539855
    152 C52        -3.2270   -4.2150    1.1190 c3        1 MOL      0.225117
    153 C53        -3.1810   -5.2990    0.0460 c3        1 MOL     -0.081503
    154 C54        -2.0570   -4.9040   -0.9260 c         1 MOL      0.583381
    155 O22        -0.9000   -5.4610   -1.0170 o         1 MOL     -0.715700
    156 O23        -2.4130   -4.0700   -1.7900 o         1 MOL     -0.715700
    157 H67        -5.4010   -3.1680    0.4660 hn        1 MOL      0.174551
    158 H68        -4.5310   -5.1620    2.5170 h1        1 MOL      0.167971
    159 H69        -2.3220   -4.2560    1.7100 hc        1 MOL     -0.000221
    160 H70        -3.0240   -3.2260    0.7060 hc        1 MOL     -0.000221
    161 H71        -4.1290   -5.3310   -0.4900 hc        1 MOL      0.004722
    162 H72        -3.0070   -6.2320    0.5890 hc        1 MOL      0.004722
    163 N14        -4.6270   -1.9750    3.2960 n         1 MOL     -0.120478
    164 C55        -4.4440   -1.0190    4.3950 c3        1 MOL     -0.175515
    165 H73        -3.4960   -1.2180    4.8960 h1        1 MOL      0.079038
    166 H74        -4.4370   -0.0040    3.9970 h1        1 MOL      0.079038
    167 H75        -5.2610   -1.1230    5.1090 h1        1 MOL      0.079038
    168 H76        -5.2880   -1.8120    2.5520 hn        1 MOL      0.096575
    169 Ca1        -0.0790   -3.4380   -2.5540 Ca        1 MOL      1.761247
    170 O24         0.3690   -1.3270   -4.2680 oh        1 MOL     -0.839114
    171 H77         0.4860   -0.8140   -5.0640 ho        1 MOL      0.415673
    172 H78         1.1710   -1.1860   -3.7700 ho        1 MOL      0.415673
    173 O25         1.9150   -3.4750   -4.3310 oh        1 MOL     -0.839114
    174 H79         1.6280   -3.3170   -5.2320 ho        1 MOL      0.415673
    175 H80         2.8160   -3.7860   -4.4090 ho        1 MOL      0.415673
    176 O26        -1.3620   -4.2120   -4.5940 oh        1 MOL     -0.839114
    177 H81        -0.9940   -4.4440   -5.4460 ho        1 MOL      0.415673
    178 H82        -2.2870   -4.0410   -4.7740 ho        1 MOL      0.415673
    179 O27         2.1910   -2.5470   -1.3680 oh        1 MOL     -0.839114
    180 H83         2.8940   -2.0040   -1.7280 ho        1 MOL      0.415673
    181 H84         2.5670   -2.9410   -0.5800 ho        1 MOL      0.415673
    182 O28         1.9950   -5.2360   -1.9320 oh        1 MOL     -0.839114
    183 H85         2.3420   -5.9240   -2.4950 ho        1 MOL      0.415673
    184 H86         2.6110   -5.1940   -1.1940 ho        1 MOL      0.415673
@<TRIPOS>BOND
     1    1    2 1   
     2    1    4 1   
     3    1    5 1   
     4    1    6 1   
     5    2    3 2   
     6    2    7 1   
     7    7    8 1   
     8    7   15 1   
     9    8    9 1   
    10    8   11 1   
    11    8   16 1   
    12    9   10 2   
    13    9   19 1   
    14   11   12 1   
    15   11   17 1   
    16   11   18 1   
    17   12   13 1   
    18   12   14 1   
    19   19   20 1   
    20   19   24 1   
    21   20   21 1   
    22   20   23 1   
    23   20   25 1   
    24   21   22 2   
    25   21   29 1   
    26   23   26 1   
    27   23   27 1   
    28   23   28 1   
    29   29   30 1   
    30   29   37 1   
    31   30   31 1   
    32   30   33 1   
    33   30   38 1   
    34   31   32 2   
    35   31   41 1   
    36   33   34 1   
    37   33   39 1   
    38   33   40 1   
    39   34   35 1   
    40   34   36 1   
    41   41   42 1   
    42   41   45 1   
    43   42   43 1   
    44   42   46 1   
    45   42   47 1   
    46   43   44 2   
    47   43   48 1   
    48   48   49 1   
    49   48   56 1   
    50   49   50 1   
    51   49   52 1   
    52   49   57 1   
    53   50   51 2   
    54   50   62 1   
    55   52   53 1   
    56   52   58 1   
    57   52   59 1   
    58   53   54 1   
    59   53   55 2   
    60   54   60 1   
    61   54   61 1   
    62   62   63 1   
    63   62   66 1   
    64   63   64 1   
    65   63   67 1   
    66   63   68 1   
    67   64   65 2   
    68   64   69 1   
    69   69   70 1   
    70   69   76 1   
    71   70   71 1   
    72   70   73 1   
    73   70   77 1   
    74   71   72 2   
    75   71   83 1   
    76   73   74 1   
    77   73   75 1   
    78   73   78 1   
    79   74   80 1   
    80   74   81 1   
    81   74   82 1   
    82   75   79 1   
    83   83   84 1   
    84   83   91 1   
    85   84   85 1   
    86   84   87 1   
    87   84   92 1   
    88   85   86 2   
    89   85  102 1   
    90   87   88 1   
    91   87   89 1   
    92   87   93 1   
    93   88   90 1   
    94   88   94 1   
    95   88   95 1   
    96   89   96 1   
    97   89   97 1   
    98   89   98 1   
    99   90   99 1   
   100   90  100 1   
   101   90  101 1   
   102  102  103 1   
   103  102  110 1   
   104  103  104 1   
   105  103  106 1   
   106  103  111 1   
   107  104  105 2   
   108  104  114 1   
   109  106  107 1   
   110  106  112 1   
   111  106  113 1   
   112  107  108 1   
   113  107  109 1   
   114  114  115 1   
   115  114  125 1   
   116  115  116 1   
   117  115  118 1   
   118  115  126 1   
   119  116  117 2   
   120  116  134 1   
   121  118  119 1   
   122  118  127 1   
   123  118  128 1   
   124  119  120 ar  
   125  119  121 ar  
   126  120  122 ar  
   127  120  129 1   
   128  121  123 ar  
   129  121  130 1   
   130  122  124 ar  
   131  122  131 1   
   132  123  124 ar  
   133  123  132 1   
   134  124  133 1   
   135  134  135 1   
   136  134  140 1   
   137  135  136 1   
   138  135  138 1   
   139  135  141 1   
   140  136  137 2   
   141  136  148 1   
   142  138  139 1   
   143  138  142 1   
   144  138  143 1   
   145  139  140 1   
   146  139  144 1   
   147  139  145 1   
   148  140  146 1   
   149  140  147 1   
   150  148  149 1   
   151  148  157 1   
   152  149  150 1   
   153  149  152 1   
   154  149  158 1   
   155  150  151 2   
   156  150  163 1   
   157  152  153 1   
   158  152  159 1   
   159  152  160 1   
   160  153  154 1   
   161  153  161 1   
   162  153  162 1   
   163  154  155 1   
   164  154  156 1   
   165  163  164 1   
   166  163  168 1   
   167  164  165 1   
   168  164  166 1   
   169  164  167 1   
   170  170  171 1   
   171  170  172 1   
   172  173  174 1   
   173  173  175 1   
   174  176  177 1   
   175  176  178 1   
   176  179  180 1   
   177  179  181 1   
   178  182  183 1   
   179  182  184 1   
@<TRIPOS>SUBSTRUCTURE
     1 MOL         1 TEMP              0 ****  ****    0 ROOT
