@<TRIPOS>MOLECULE
MOL
  194   186     1     0     0
SMALL
resp


@<TRIPOS>ATOM
      1 C1         -1.7830    0.2430   -3.6230 c3        1 MOL     -0.469630
      2 C2         -2.8860    0.3230   -2.5500 c         1 MOL      0.695980
      3 O1         -2.7180    0.9650   -1.5770 o         1 MOL     -0.538548
      4 H1         -0.8920    0.7590   -3.2670 hc        1 MOL      0.130177
      5 H2         -1.5420   -0.8020   -3.8200 hc        1 MOL      0.130177
      6 H3         -2.1330    0.7150   -4.5420 hc        1 MOL      0.130177
      7 N1         -4.0100   -0.4270   -2.7630 n         1 MOL     -0.567424
      8 C3         -5.2500   -0.0670   -2.0400 c3        1 MOL      0.111285
      9 C4         -5.9170   -1.3170   -1.4190 c         1 MOL      0.139337
     10 O2         -7.0160   -1.1350   -0.9700 o         1 MOL     -0.332508
     11 C5         -6.1960    0.5640   -3.0980 c3        1 MOL     -0.059251
     12 C6         -6.2510   -0.1970   -4.4390 c         1 MOL      0.698328
     13 O3         -6.6220    0.4470   -5.4100 o         1 MOL     -0.692892
     14 O4         -5.9550   -1.4030   -4.5410 o         1 MOL     -0.692892
     15 H4         -4.1280   -1.1430   -3.4550 hn        1 MOL      0.285253
     16 H5         -5.0670    0.5750   -1.1790 h1        1 MOL      0.038258
     17 H6         -5.8990    1.5950   -3.2860 hc        1 MOL      0.018291
     18 H7         -7.1860    0.5420   -2.6390 hc        1 MOL      0.018291
     19 N2         -5.2260   -2.4400   -1.4410 n         1 MOL     -0.108280
     20 C7         -5.7730   -3.7460   -0.9420 c3        1 MOL      0.023485
     21 C8         -6.0660   -3.7550    0.5610 c         1 MOL      0.434519
     22 O5         -7.1560   -4.1090    0.9740 o         1 MOL     -0.494173
     23 C9         -6.8870   -4.1130   -1.8940 c3        1 MOL     -0.066326
     24 C10        -7.1890   -5.6370   -1.7880 c3        1 MOL      0.164565
     25 C11        -8.2430   -6.0720   -2.8260 c3        1 MOL      0.018838
     26 C12        -8.8780   -7.4640   -2.5300 c3        1 MOL     -0.076206
     27 N3         -7.9910   -8.5860   -2.3910 n4        1 MOL     -0.122734
     28 H8         -4.2620   -2.3370   -1.7060 hn        1 MOL      0.175630
     29 H9         -5.0650   -4.5510   -1.1080 h1        1 MOL      0.038826
     30 H10        -6.5950   -3.8500   -2.9080 hc        1 MOL      0.055006
     31 H11        -7.7200   -3.5140   -1.5290 hc        1 MOL      0.055006
     32 H12        -7.5980   -5.8690   -0.8130 hc        1 MOL     -0.047191
     33 H13        -6.2430   -6.1790   -1.9380 hc        1 MOL     -0.047191
     34 H14        -7.7490   -6.0660   -3.7990 hc        1 MOL      0.024778
     35 H15        -9.0470   -5.3370   -2.8790 hc        1 MOL      0.024778
     36 H16        -9.6080   -7.7270   -3.2940 hx        1 MOL      0.094463
     37 H17        -9.4770   -7.3280   -1.6230 hx        1 MOL      0.094463
     38 H18        -7.6090   -8.6320   -1.4610 hn        1 MOL      0.210889
     39 H19        -8.4160   -9.5030   -2.4350 hn        1 MOL      0.210889
     40 H20        -7.1880   -8.4700   -2.9920 hn        1 MOL      0.210889
     41 N4         -5.1530   -3.1310    1.2940 n         1 MOL     -0.472414
     42 C13        -5.3610   -2.7650    2.7130 c3        1 MOL      0.358490
     43 C14        -6.0070   -1.3330    2.9550 c         1 MOL      0.360665
     44 O6         -5.6650   -0.7140    3.9650 o         1 MOL     -0.489264
     45 C15        -4.1400   -3.1290    3.5510 c3        1 MOL     -0.313119
     46 C16        -2.9210   -2.3450    3.1420 c         1 MOL      0.891040
     47 O7         -2.2300   -2.6840    2.1580 o         1 MOL     -0.815043
     48 O8         -2.4380   -1.4080    3.8410 o         1 MOL     -0.815043
     49 H21        -4.3590   -2.7420    0.8180 hn        1 MOL      0.184692
     50 H22        -6.0830   -3.5130    3.0440 h1        1 MOL      0.006159
     51 H23        -3.9050   -4.1920    3.4320 hc        1 MOL      0.071709
     52 H24        -4.3680   -2.8980    4.5930 hc        1 MOL      0.071709
     53 N5         -6.8360   -0.8160    2.0630 n         1 MOL     -0.298856
     54 C17        -7.6480    0.4020    2.2160 c3        1 MOL      0.104444
     55 C18        -8.4760    0.7230    0.9770 c         1 MOL      0.471798
     56 O9         -9.3180   -0.1060    0.6050 o         1 MOL     -0.531691
     57 H25        -7.0390   -1.3860    1.2530 hn        1 MOL      0.233348
     58 H26        -7.0640    1.2810    2.4870 h1        1 MOL     -0.000758
     59 H27        -8.3620    0.3510    3.0470 h1        1 MOL     -0.000758
     60 N6         -8.2220    1.7740    0.2410 n         1 MOL     -0.446787
     61 C19        -7.1490    2.8190    0.4200 c3        1 MOL      0.317100
     62 C20        -6.7420    3.2340   -0.9710 c         1 MOL      0.206832
     63 O10        -7.5830    3.6170   -1.8100 o         1 MOL     -0.453081
     64 C21        -7.7780    3.9160    1.2460 c3        1 MOL     -0.388060
     65 C22        -6.7910    5.0670    1.6540 c         1 MOL      0.699578
     66 N7         -6.7110    5.3510    2.9260 n         1 MOL     -0.807577
     67 O11        -6.1290    5.7330    0.8400 o         1 MOL     -0.522969
     68 H28        -8.8330    1.9070   -0.5530 hn        1 MOL      0.317495
     69 H29        -6.2940    2.4110    0.9620 h1        1 MOL      0.073588
     70 H30        -8.2440    3.4490    2.1040 hc        1 MOL      0.115473
     71 H31        -8.5900    4.3880    0.6730 hc        1 MOL      0.115473
     72 H32        -7.3140    4.8430    3.5610 hn        1 MOL      0.372364
     73 H33        -6.0370    6.0230    3.2570 hn        1 MOL      0.372364
     74 N8         -5.4170    3.3540   -1.1870 n         1 MOL     -0.150607
     75 C23        -4.3680    3.4090   -0.1230 c3        1 MOL     -0.255729
     76 C24        -3.1000    4.1210   -0.5250 c         1 MOL      0.686976
     77 O12        -3.1300    5.2240   -1.0420 o         1 MOL     -0.543277
     78 H34        -5.1510    3.6870   -2.0980 hn        1 MOL      0.295081
     79 H35        -4.1360    2.3790    0.1800 h1        1 MOL      0.057889
     80 H36        -4.6940    3.8380    0.8290 h1        1 MOL      0.057889
     81 N9         -2.0320    3.3960   -0.3430 n         1 MOL     -0.356846
     82 C25        -0.6860    3.8880   -0.6430 c3        1 MOL      0.019023
     83 C26         0.4040    2.7680   -0.7830 c         1 MOL      0.774242
     84 O13         0.1360    1.5440   -0.7600 o         1 MOL     -0.662431
     85 C27        -0.3190    4.8540    0.5740 c3        1 MOL     -0.223682
     86 C28         0.9120    5.6350    0.3040 ca        1 MOL      0.092575
     87 C29         1.9770    5.5310    1.1930 ca        1 MOL     -0.130183
     88 C30         1.0940    6.3240   -0.9260 ca        1 MOL     -0.130183
     89 C31         3.1890    6.1990    1.0020 ca        1 MOL     -0.296797
     90 C32         2.2820    7.0860   -1.1150 ca        1 MOL     -0.296797
     91 C33         3.3290    7.0280   -0.1580 ca        1 MOL      0.366597
     92 O14         4.4900    7.6580   -0.4530 oh        1 MOL     -0.515377
     93 H37        -2.2080    2.3960   -0.2900 hn        1 MOL      0.137384
     94 H38        -0.7320    4.4080   -1.5960 h1        1 MOL      0.086926
     95 H39        -0.2110    4.1880    1.4300 hc        1 MOL      0.090174
     96 H40        -1.1570    5.5010    0.8000 hc        1 MOL      0.090174
     97 H41         1.8590    4.9510    2.1010 ha        1 MOL      0.135061
     98 H42         0.3020    6.2990   -1.6590 ha        1 MOL      0.135061
     99 H43         3.9680    6.1730    1.7450 ha        1 MOL      0.167878
    100 H44         2.4890    7.5850   -2.0380 ha        1 MOL      0.167878
    101 H45         4.4560    8.3000   -1.1740 ho        1 MOL      0.396873
    102 N10         1.6550    3.1020   -1.0160 n         1 MOL     -0.633984
    103 C34         2.8050    2.1150   -1.0340 c3        1 MOL      0.229500
    104 C35         3.5220    1.9380    0.2950 c         1 MOL      0.333100
    105 O15         3.5260    2.7250    1.2640 o         1 MOL     -0.479450
    106 C36         3.8260    2.6050   -2.1250 c3        1 MOL      0.105386
    107 C37         4.7030    3.8530   -1.7840 c3        1 MOL      0.074353
    108 C38         4.7900    1.5370   -2.6580 c3        1 MOL     -0.386992
    109 C39         5.0010    4.7500   -2.9740 c3        1 MOL     -0.274813
    110 H46         1.8440    4.0970   -0.9400 hn        1 MOL      0.230106
    111 H47         2.4180    1.1670   -1.3880 h1        1 MOL      0.074838
    112 H48         3.1610    2.9140   -2.9230 hc        1 MOL      0.038718
    113 H49         5.6550    3.5170   -1.3790 hc        1 MOL      0.031879
    114 H50         4.2610    4.4810   -1.0100 hc        1 MOL      0.031879
    115 H51         5.3970    1.8910   -3.4930 hc        1 MOL      0.098814
    116 H52         5.4030    1.2090   -1.8230 hc        1 MOL      0.098814
    117 H53         4.2860    0.6010   -2.9100 hc        1 MOL      0.098814
    118 H54         5.3780    5.7430   -2.7180 hc        1 MOL      0.069059
    119 H55         5.6740    4.2720   -3.6830 hc        1 MOL      0.069059
    120 H56         4.0500    4.8440   -3.4940 hc        1 MOL      0.069059
    121 N11         4.2890    0.8850    0.4780 n         1 MOL     -0.387193
    122 C40         5.2780    0.6630    1.5630 c3        1 MOL      0.022074
    123 C41         5.5620   -0.7920    1.9650 c         1 MOL      0.471776
    124 O16         5.4790   -1.6560    1.1080 o         1 MOL     -0.418608
    125 C42         6.5930    1.3860    1.2280 c3        1 MOL     -0.297948
    126 O17         7.2480    0.7750    0.0680 oh        1 MOL     -0.428588
    127 H57         4.3860    0.3060   -0.3380 hn        1 MOL      0.243648
    128 H58         4.8270    1.1010    2.4580 h1        1 MOL      0.118643
    129 H59         7.3190    1.3330    2.0330 h1        1 MOL      0.154541
    130 H60         6.3910    2.4240    0.9610 h1        1 MOL      0.154541
    131 H61         8.0090    1.3050   -0.1880 ho        1 MOL      0.423637
    132 N12         6.1420   -1.0250    3.1480 n         1 MOL     -0.426392
    133 C43         6.8480   -2.2780    3.3620 c3        1 MOL      0.132089
    134 C44         8.0560   -2.5270    2.4470 c         1 MOL      0.422826
    135 O18         8.2660   -3.6060    1.8770 o         1 MOL     -0.409303
    136 C45         5.8730   -3.4440    3.6640 c3        1 MOL     -0.331623
    137 H62         6.2080   -0.3160    3.8650 hn        1 MOL      0.267079
    138 H63         7.3140   -2.1800    4.3320 h1        1 MOL      0.055763
    139 H64         6.4560   -4.2720    4.0490 hc        1 MOL      0.102877
    140 H65         5.0950   -3.1500    4.3820 hc        1 MOL      0.102877
    141 H66         5.3880   -3.7350    2.7310 hc        1 MOL      0.102877
    142 N13         8.8280   -1.4570    2.2810 n         1 MOL     -0.498936
    143 C46        10.0390   -1.4060    1.4760 c3        1 MOL      0.500617
    144 C47         9.7890   -1.9590    0.0560 c         1 MOL      0.145749
    145 O19        10.6290   -2.6360   -0.4770 o         1 MOL     -0.460111
    146 C48        11.1630   -2.0300    2.2600 c3        1 MOL     -0.335405
    147 H67         8.5910   -0.6150    2.7930 hn        1 MOL      0.246800
    148 H68        10.2450   -0.3590    1.2890 h1        1 MOL     -0.042483
    149 H69        12.1010   -1.9050    1.7230 hc        1 MOL      0.083398
    150 H70        11.2020   -1.4150    3.1550 hc        1 MOL      0.083398
    151 H71        10.9440   -3.0680    2.5370 hc        1 MOL      0.083398
    152 N14         8.6700   -1.6400   -0.5530 n         1 MOL      0.040533
    153 C49         8.3610   -2.2250   -1.8710 c3        1 MOL     -0.064241
    154 C50         9.0350   -1.4620   -3.0220 c         1 MOL      0.397958
    155 O20         9.4360   -2.0590   -3.9790 o         1 MOL     -0.463111
    156 C51         6.8220   -2.2730   -2.1210 c3        1 MOL      0.097007
    157 C52         6.2410   -2.9020   -3.4020 c3        1 MOL     -0.289382
    158 C53         6.5450   -4.3400   -3.5150 c         1 MOL      0.731084
    159 O21         6.3790   -4.9280   -4.6380 o         1 MOL     -0.647614
    160 O22         6.8140   -5.0040   -2.5050 o         1 MOL     -0.647614
    161 H72         7.9930   -1.0650   -0.0690 hn        1 MOL     -0.081945
    162 H73         8.7160   -3.2560   -1.8400 h1        1 MOL      0.160509
    163 H74         6.5890   -1.2130   -2.0120 hc        1 MOL      0.027049
    164 H75         6.4480   -2.8450   -1.2600 hc        1 MOL      0.027049
    165 H76         6.6860   -2.3680   -4.2500 hc        1 MOL      0.041812
    166 H77         5.1730   -2.6530   -3.4060 hc        1 MOL      0.041812
    167 N15         9.2840   -0.1440   -2.8110 n         1 MOL     -0.220741
    168 C54        10.1210    0.6780   -3.7390 c3        1 MOL     -0.077111
    169 H78        10.9920    1.0550   -3.2040 h1        1 MOL      0.061619
    170 H79        10.4480    0.0620   -4.5760 h1        1 MOL      0.061619
    171 H80         9.5330    1.5170   -4.1120 h1        1 MOL      0.061619
    172 H81         8.8080    0.3430   -2.0690 hn        1 MOL      0.116289
    173 Ca1        -0.0880   -1.3500    2.7330 Ca        1 MOL      1.699265
    174 O23        -0.5010   -0.2040    5.4110 oh        1 MOL     -0.788568
    175 H82        -0.0570   -0.8150    5.9980 ho        1 MOL      0.398882
    176 H83        -1.3280    0.0010    5.8500 ho        1 MOL      0.398882
    177 O24         1.0430   -3.6170    1.6220 oh        1 MOL     -0.788568
    178 H84         0.6370   -4.4850    1.5790 ho        1 MOL      0.398882
    179 H85         1.0110   -3.2880    0.7220 ho        1 MOL      0.398882
    180 O25         2.2590   -1.4620    4.0930 oh        1 MOL     -0.788568
    181 H86         2.8310   -0.8260    4.5310 ho        1 MOL      0.398882
    182 H87         2.4280   -2.2890    4.5410 ho        1 MOL      0.398882
    183 O26        -0.2570   -3.4970    4.4440 oh        1 MOL     -0.788568
    184 H88        -0.7030   -4.3320    4.3330 ho        1 MOL      0.398882
    185 H89         0.4740   -3.6960    5.0250 ho        1 MOL      0.398882
    186 O27         0.3490    1.2060    2.6830 oh        1 MOL     -0.788568
    187 H90         0.3980    1.8370    1.9590 ho        1 MOL      0.398882
    188 H91         0.3280    1.7510    3.4690 ho        1 MOL      0.398882
    189 O28         1.1990   -0.7970    0.3920 oh        1 MOL     -0.788568
    190 H92         1.9970   -1.0710   -0.0650 ho        1 MOL      0.398882
    191 H93         0.8320   -0.1140   -0.1680 ho        1 MOL      0.398882
    192 O29        -1.7850   -0.1200    1.0780 oh        1 MOL     -0.788568
    193 H94        -1.6650    0.1450    0.1590 ho        1 MOL      0.398882
    194 H95        -2.7060    0.0690    1.2530 ho        1 MOL      0.398882
@<TRIPOS>BOND
     1    1    2 1   
     2    1    4 1   
     3    1    5 1   
     4    1    6 1   
     5    2    3 2   
     6    2    7 1   
     7    7    8 1   
     8    7   15 1   
     9    8    9 1   
    10    8   11 1   
    11    8   16 1   
    12    9   10 2   
    13    9   19 1   
    14   11   12 1   
    15   11   17 1   
    16   11   18 1   
    17   12   13 1   
    18   12   14 1   
    19   19   20 1   
    20   19   28 1   
    21   20   21 1   
    22   20   23 1   
    23   20   29 1   
    24   21   22 2   
    25   21   41 1   
    26   23   24 1   
    27   23   30 1   
    28   23   31 1   
    29   24   25 1   
    30   24   32 1   
    31   24   33 1   
    32   25   26 1   
    33   25   34 1   
    34   25   35 1   
    35   26   27 1   
    36   26   36 1   
    37   26   37 1   
    38   27   38 1   
    39   27   39 1   
    40   27   40 1   
    41   41   42 1   
    42   41   49 1   
    43   42   43 1   
    44   42   45 1   
    45   42   50 1   
    46   43   44 2   
    47   43   53 1   
    48   45   46 1   
    49   45   51 1   
    50   45   52 1   
    51   46   47 1   
    52   46   48 1   
    53   53   54 1   
    54   53   57 1   
    55   54   55 1   
    56   54   58 1   
    57   54   59 1   
    58   55   56 2   
    59   55   60 1   
    60   60   61 1   
    61   60   68 1   
    62   61   62 1   
    63   61   64 1   
    64   61   69 1   
    65   62   63 2   
    66   62   74 1   
    67   64   65 1   
    68   64   70 1   
    69   64   71 1   
    70   65   66 1   
    71   65   67 2   
    72   66   72 1   
    73   66   73 1   
    74   74   75 1   
    75   74   78 1   
    76   75   76 1   
    77   75   79 1   
    78   75   80 1   
    79   76   77 2   
    80   76   81 1   
    81   81   82 1   
    82   81   93 1   
    83   82   83 1   
    84   82   85 1   
    85   82   94 1   
    86   83   84 2   
    87   83  102 1   
    88   85   86 1   
    89   85   95 1   
    90   85   96 1   
    91   86   87 ar  
    92   86   88 ar  
    93   87   89 ar  
    94   87   97 1   
    95   88   90 ar  
    96   88   98 1   
    97   89   91 ar  
    98   89   99 1   
    99   90   91 ar  
   100   90  100 1   
   101   91   92 1   
   102   92  101 1   
   103  102  103 1   
   104  102  110 1   
   105  103  104 1   
   106  103  106 1   
   107  103  111 1   
   108  104  105 2   
   109  104  121 1   
   110  106  107 1   
   111  106  108 1   
   112  106  112 1   
   113  107  109 1   
   114  107  113 1   
   115  107  114 1   
   116  108  115 1   
   117  108  116 1   
   118  108  117 1   
   119  109  118 1   
   120  109  119 1   
   121  109  120 1   
   122  121  122 1   
   123  121  127 1   
   124  122  123 1   
   125  122  125 1   
   126  122  128 1   
   127  123  124 2   
   128  123  132 1   
   129  125  126 1   
   130  125  129 1   
   131  125  130 1   
   132  126  131 1   
   133  132  133 1   
   134  132  137 1   
   135  133  134 1   
   136  133  136 1   
   137  133  138 1   
   138  134  135 2   
   139  134  142 1   
   140  136  139 1   
   141  136  140 1   
   142  136  141 1   
   143  142  143 1   
   144  142  147 1   
   145  143  144 1   
   146  143  146 1   
   147  143  148 1   
   148  144  145 2   
   149  144  152 1   
   150  146  149 1   
   151  146  150 1   
   152  146  151 1   
   153  152  153 1   
   154  152  161 1   
   155  153  154 1   
   156  153  156 1   
   157  153  162 1   
   158  154  155 2   
   159  154  167 1   
   160  156  157 1   
   161  156  163 1   
   162  156  164 1   
   163  157  158 1   
   164  157  165 1   
   165  157  166 1   
   166  158  159 1   
   167  158  160 1   
   168  167  168 1   
   169  167  172 1   
   170  168  169 1   
   171  168  170 1   
   172  168  171 1   
   173  174  175 1   
   174  174  176 1   
   175  177  178 1   
   176  177  179 1   
   177  180  181 1   
   178  180  182 1   
   179  183  184 1   
   180  183  185 1   
   181  186  187 1   
   182  186  188 1   
   183  189  190 1   
   184  189  191 1   
   185  192  193 1   
   186  192  194 1   
@<TRIPOS>SUBSTRUCTURE
     1 MOL         1 TEMP              0 ****  ****    0 ROOT
