@<TRIPOS>MOLECULE
MOL
  185   180     1     0     0
SMALL
resp


@<TRIPOS>ATOM
      1 C1         -5.8390    0.7430    5.2580 c3        1 MOL     -0.274783
      2 C2         -5.1690    0.2370    3.9030 c         1 MOL      0.570263
      3 O1         -3.9770    0.0190    3.8730 o         1 MOL     -0.561601
      4 H1         -5.2780    0.3540    6.1070 hc        1 MOL      0.062036
      5 H2         -5.8280    1.8330    5.2840 hc        1 MOL      0.062036
      6 H3         -6.8690    0.3890    5.3090 hc        1 MOL      0.062036
      7 N1         -5.9050    0.2830    2.8230 n         1 MOL     -0.352513
      8 C3         -5.4090    0.1220    1.5180 c3        1 MOL      0.024851
      9 C4         -4.8030    1.5120    1.1210 c         1 MOL      0.519684
     10 O2         -3.6210    1.4910    0.9830 o         1 MOL     -0.457625
     11 C5         -6.4970   -0.4780    0.5320 c3        1 MOL     -0.333544
     12 C6         -7.9860   -0.1480    0.6480 c         1 MOL      0.669413
     13 O3         -8.8550   -1.0360    0.5160 o         1 MOL     -0.660709
     14 O4         -8.2940    1.0650    0.8930 o         1 MOL     -0.660709
     15 H4         -6.8860    0.5300    2.8330 hn        1 MOL      0.247114
     16 H5         -4.5660   -0.5690    1.4450 h1        1 MOL      0.086607
     17 H6         -6.4620   -1.5740    0.5970 hc        1 MOL      0.121123
     18 H7         -6.1750   -0.2300   -0.4730 hc        1 MOL      0.121123
     19 N2         -5.6120    2.6310    1.0990 n         1 MOL     -0.606413
     20 C7         -5.0840    3.8720    0.5400 c3        1 MOL      0.426509
     21 C8         -4.8840    3.9250   -0.9810 c         1 MOL      0.391433
     22 O5         -5.3870    4.7880   -1.7070 o         1 MOL     -0.560461
     23 C9         -5.9200    5.0220    1.1080 c3        1 MOL     -0.139709
     24 C10        -5.7860    5.1740    2.6610 c3        1 MOL     -0.034888
     25 C11        -6.6460    6.3700    3.1130 c3        1 MOL      0.091010
     26 C12        -6.6660    6.5790    4.6300 c3        1 MOL     -0.025146
     27 N3         -7.5460    7.7170    5.0910 n4        1 MOL     -0.398819
     28 H8         -6.6000    2.4770    1.2360 hn        1 MOL      0.275895
     29 H9         -4.0600    4.0280    0.9080 h1        1 MOL      0.009624
     30 H10        -6.9680    4.8250    0.9110 hc        1 MOL      0.043510
     31 H11        -5.5020    5.9050    0.6210 hc        1 MOL      0.043510
     32 H12        -4.7620    5.3180    2.9990 hc        1 MOL      0.023980
     33 H13        -6.2400    4.3120    3.1420 hc        1 MOL      0.023980
     34 H14        -7.6410    6.2320    2.7010 hc        1 MOL      0.008026
     35 H15        -6.2620    7.2530    2.5960 hc        1 MOL      0.008026
     36 H16        -5.6760    6.7660    5.0540 hx        1 MOL      0.096472
     37 H17        -7.1240    5.6710    5.0080 hx        1 MOL      0.096472
     38 H18        -7.4530    7.7740    6.0870 hn        1 MOL      0.336047
     39 H19        -7.2300    8.5430    4.6020 hn        1 MOL      0.336047
     40 H20        -8.5210    7.5220    4.9400 hn        1 MOL      0.336047
     41 N4         -4.4200    2.8340   -1.5260 n         1 MOL     -0.198590
     42 C13        -4.3400    2.5420   -2.9890 c3        1 MOL      0.093083
     43 C14        -4.6900    1.0130   -3.2620 c         1 MOL      0.297295
     44 O6         -4.1280    0.0420   -2.6540 o         1 MOL     -0.374983
     45 C15        -2.9860    2.8150   -3.6110 c3        1 MOL     -0.236882
     46 C16        -1.7100    2.2080   -2.9060 c         1 MOL      0.788001
     47 O7         -0.8340    1.5930   -3.6120 o         1 MOL     -0.757605
     48 O8         -1.4800    2.2900   -1.6480 o         1 MOL     -0.757605
     49 H21        -4.1100    2.0830   -0.9400 hn        1 MOL      0.097091
     50 H22        -5.0620    3.2030   -3.4630 h1        1 MOL      0.077581
     51 H23        -2.9420    3.9000   -3.7250 hc        1 MOL      0.065679
     52 H24        -2.9400    2.4380   -4.6250 hc        1 MOL      0.065679
     53 N5         -5.5630    0.8190   -4.2820 n         1 MOL     -0.277247
     54 C17        -6.0810   -0.5100   -4.7130 c3        1 MOL     -0.090832
     55 C18        -7.1380   -0.9850   -3.7350 c         1 MOL      0.485768
     56 O9         -8.1940   -0.2890   -3.7110 o         1 MOL     -0.510676
     57 H25        -5.8340    1.6290   -4.8290 hn        1 MOL      0.281877
     58 H26        -5.2860   -1.2530   -4.7530 h1        1 MOL      0.085850
     59 H27        -6.5930   -0.3820   -5.6720 h1        1 MOL      0.085850
     60 N6         -6.9930   -2.0220   -2.8590 n         1 MOL     -0.412130
     61 C19        -5.8790   -2.8770   -2.5910 c3        1 MOL      0.170666
     62 C20        -5.9150   -3.6120   -1.2780 c         1 MOL      0.457670
     63 O10        -6.8920   -4.2730   -0.9870 o         1 MOL     -0.504750
     64 C21        -5.6350   -3.9240   -3.7520 c3        1 MOL     -0.312399
     65 C22        -4.3080   -4.7240   -3.4560 c         1 MOL      0.639752
     66 N7         -4.2370   -6.0230   -3.2930 n         1 MOL     -0.791944
     67 O11        -3.2740   -4.0820   -3.2680 o         1 MOL     -0.562541
     68 H28        -7.8230   -2.3260   -2.3760 hn        1 MOL      0.313033
     69 H29        -4.9690   -2.2620   -2.5900 h1        1 MOL      0.038704
     70 H30        -5.4800   -3.4390   -4.7120 hc        1 MOL      0.095973
     71 H31        -6.5280   -4.5420   -3.8530 hc        1 MOL      0.095973
     72 H32        -5.0390   -6.6330   -3.2610 hn        1 MOL      0.380584
     73 H33        -3.2990   -6.3900   -3.2270 hn        1 MOL      0.380584
     74 N8         -4.9480   -3.4930   -0.3050 n         1 MOL     -0.432162
     75 C23        -3.6540   -2.8830   -0.4200 c3        1 MOL      0.360624
     76 C24        -2.6140   -3.4080    0.4910 c         1 MOL      0.540451
     77 O12        -2.8510   -4.2200    1.3880 o         1 MOL     -0.555006
     78 H34        -5.0400   -3.9490    0.5930 hn        1 MOL      0.273277
     79 H35        -3.8000   -1.8710   -0.0320 h1        1 MOL     -0.105488
     80 H36        -3.2840   -2.8130   -1.4370 h1        1 MOL     -0.105488
     81 N9         -1.3420   -3.1070    0.1900 n         1 MOL     -0.573324
     82 C25        -0.1120   -3.3700    0.9390 c3        1 MOL      0.360906
     83 C26         1.0610   -2.4050    0.7410 c         1 MOL      0.261937
     84 O13         1.2110   -1.7030   -0.2860 o         1 MOL     -0.514433
     85 C27         0.3530   -4.8490    0.9940 c3        1 MOL     -0.213580
     86 C28         1.0160   -5.2530    2.2870 ca        1 MOL      0.003621
     87 C29         2.3480   -5.6410    2.2950 ca        1 MOL     -0.096712
     88 C30         0.2480   -5.2110    3.4910 ca        1 MOL     -0.096712
     89 C31         2.9720   -6.0030    3.4540 ca        1 MOL     -0.271522
     90 C32         0.8890   -5.5430    4.7150 ca        1 MOL     -0.271522
     91 C33         2.2890   -5.9660    4.6620 ca        1 MOL      0.342907
     92 O14         2.9230   -6.1030    5.8890 oh        1 MOL     -0.551008
     93 H37        -1.2020   -2.4420   -0.5660 hn        1 MOL      0.293522
     94 H38        -0.4230   -3.0030    1.9190 h1        1 MOL      0.021933
     95 H39         0.9590   -4.9940    0.0970 hc        1 MOL      0.087183
     96 H40        -0.5110   -5.4620    0.7400 hc        1 MOL      0.087183
     97 H41         2.9790   -5.5320    1.4240 ha        1 MOL      0.129126
     98 H42        -0.7890   -4.9250    3.4710 ha        1 MOL      0.129126
     99 H43         4.0200   -6.2760    3.4560 ha        1 MOL      0.155923
    100 H44         0.3690   -5.5830    5.6650 ha        1 MOL      0.155923
    101 H45         2.4140   -6.0780    6.6960 ho        1 MOL      0.401905
    102 N10         1.9550   -2.3640    1.7020 n         1 MOL     -0.121030
    103 C34         3.1310   -1.5490    1.8730 c3        1 MOL      0.138759
    104 C35         4.5470   -2.1560    1.4540 c         1 MOL      0.419432
    105 O15         4.6580   -3.3430    1.1220 o         1 MOL     -0.501004
    106 C36         3.1060   -0.9740    3.3800 c3        1 MOL      0.142902
    107 C37         2.1670    0.2000    3.6340 c3        1 MOL     -0.072366
    108 C38         2.8740   -2.0920    4.4710 c3        1 MOL     -0.258638
    109 C39         2.4910    1.3630    2.6730 c3        1 MOL     -0.359774
    110 H46         1.8570   -3.1150    2.3830 hn        1 MOL      0.101832
    111 H47         3.0950   -0.7490    1.1300 h1        1 MOL     -0.018770
    112 H48         4.1050   -0.5690    3.5640 hc        1 MOL     -0.025448
    113 H49         2.3090    0.6080    4.6300 hc        1 MOL      0.047243
    114 H50         1.1320   -0.1050    3.4480 hc        1 MOL      0.047243
    115 H51         3.5320   -2.9540    4.3390 hc        1 MOL      0.064835
    116 H52         2.9770   -1.6430    5.4560 hc        1 MOL      0.064835
    117 H53         1.8290   -2.4040    4.4490 hc        1 MOL      0.064835
    118 H54         3.3130    1.2550    1.9710 hc        1 MOL      0.105200
    119 H55         1.6030    1.5260    2.0560 hc        1 MOL      0.105200
    120 H56         2.4970    2.2770    3.2660 hc        1 MOL      0.105200
    121 N11         5.5360   -1.3010    1.3670 n         1 MOL     -0.375218
    122 C40         6.8240   -1.6250    0.8400 c3        1 MOL      0.008337
    123 C41         6.8730   -1.1860   -0.5980 c         1 MOL      0.565309
    124 O16         6.0790   -0.3840   -1.0560 o         1 MOL     -0.430315
    125 C42         7.8920   -0.8710    1.6360 c3        1 MOL     -0.005935
    126 O17         7.8620    0.5210    1.2680 oh        1 MOL     -0.361794
    127 H57         5.2370   -0.3370    1.3400 hn        1 MOL      0.275048
    128 H58         6.9070   -2.7020    0.9110 h1        1 MOL      0.089906
    129 H59         8.8450   -1.3620    1.4400 h1        1 MOL      0.062053
    130 H60         7.6920   -0.8690    2.7030 h1        1 MOL      0.062053
    131 H61         8.7400    0.8800    1.4320 ho        1 MOL      0.305063
    132 N12         7.9060   -1.6750   -1.3320 n         1 MOL     -0.579112
    133 C43         8.3370   -1.3320   -2.6350 c3        1 MOL      0.176618
    134 C44         8.5440    0.2100   -2.6720 c         1 MOL      0.512047
    135 O18         7.9300    0.9110   -3.5110 o         1 MOL     -0.506986
    136 C45         7.2740   -1.7390   -3.6550 c3        1 MOL     -0.391506
    137 H62         8.6180   -2.2340   -0.8760 hn        1 MOL      0.307125
    138 H63         9.2880   -1.8430   -2.7610 h1        1 MOL      0.064693
    139 H64         6.3950   -1.1230   -3.4980 hc        1 MOL      0.121381
    140 H65         7.7160   -1.7240   -4.6480 hc        1 MOL      0.121381
    141 H66         6.8400   -2.7280   -3.4870 hc        1 MOL      0.121381
    142 N13         9.3850    0.6750   -1.8720 n         1 MOL     -0.598433
    143 C46         9.7110    2.1000   -1.5670 c3        1 MOL      0.474389
    144 C47         8.6090    3.0840   -1.1270 c         1 MOL      0.276586
    145 O19         8.9920    4.2250   -1.0450 o         1 MOL     -0.497510
    146 C48        10.6440    2.5240   -2.7130 c3        1 MOL     -0.231033
    147 H67         9.9010   -0.0020   -1.3310 hn        1 MOL      0.266260
    148 H68        10.3380    2.1780   -0.6790 h1        1 MOL     -0.025015
    149 H69        11.4670    1.8140   -2.8080 hc        1 MOL      0.061352
    150 H70        10.0450    2.6110   -3.6250 hc        1 MOL      0.061352
    151 H71        11.1320    3.4510   -2.4240 hc        1 MOL      0.061352
    152 N14         7.3830    2.6770   -0.8150 n         1 MOL     -0.062674
    153 C49         6.3000    3.6040   -0.4300 c3        1 MOL     -0.177330
    154 C50         6.4690    4.0880    1.0370 c         1 MOL      0.426777
    155 O20         6.3340    5.3140    1.2590 o         1 MOL     -0.521065
    156 C51         5.0080    2.7690   -0.7470 c3        1 MOL      0.320573
    157 C52         3.9350    3.8060   -0.9380 c3        1 MOL     -0.407479
    158 C53         2.6350    3.0000   -1.1730 c         1 MOL      0.882229
    159 O21         2.0310    2.5170   -0.2070 o         1 MOL     -0.807344
    160 O22         2.1220    2.7890   -2.3240 o         1 MOL     -0.807344
    161 H72         7.1710    1.7390   -1.1300 hn        1 MOL      0.029175
    162 H73         6.3370    4.4630   -1.1030 h1        1 MOL      0.149512
    163 H74         4.7550    2.0770    0.0590 hc        1 MOL     -0.011234
    164 H75         5.0670    2.3050   -1.7260 hc        1 MOL     -0.011234
    165 H76         4.2770    4.4010   -1.7880 hc        1 MOL      0.089828
    166 H77         3.8680    4.4840   -0.0930 hc        1 MOL      0.089828
    167 N15         6.7750    3.2920    2.0400 n         1 MOL     -0.175640
    168 C54         7.1660    3.8550    3.3570 c3        1 MOL     -0.317867
    169 H78         7.8460    3.1650    3.8590 h1        1 MOL      0.131416
    170 H79         7.6640    4.8130    3.2090 h1        1 MOL      0.131416
    171 H80         6.2760    3.9980    3.9700 h1        1 MOL      0.131416
    172 H81         6.8620    2.3080    1.8470 hn        1 MOL      0.135897
    173 Ca1         0.6190    0.7000   -1.6230 Ca        1 MOL      1.755970
    174 O23         1.1800   -0.6490   -4.0470 oh        1 MOL     -0.831126
    175 H82         0.5990   -0.1000   -4.5840 ho        1 MOL      0.406913
    176 H83         1.3710   -1.4020   -4.6090 ho        1 MOL      0.406913
    177 O24        -0.8900    0.3370    0.5840 oh        1 MOL     -0.831126
    178 H84        -0.9540   -0.1710    1.3870 ho        1 MOL      0.406913
    179 H85        -1.7530    0.7340    0.4880 ho        1 MOL      0.406913
    180 O25        -1.1550   -1.2020   -2.1160 oh        1 MOL     -0.831126
    181 H86        -2.0130   -1.0690   -2.5030 ho        1 MOL      0.406913
    182 H87        -0.7850   -1.9320   -2.6120 ho        1 MOL      0.406913
    183 O26         3.0910   -0.3600   -1.6590 oh        1 MOL     -0.831126
    184 H88         2.8540   -1.2820   -1.5750 ho        1 MOL      0.406913
    185 H89         4.0430   -0.3600   -1.6360 ho        1 MOL      0.406913
@<TRIPOS>BOND
     1    1    2 1   
     2    1    4 1   
     3    1    5 1   
     4    1    6 1   
     5    2    3 2   
     6    2    7 1   
     7    7    8 1   
     8    7   15 1   
     9    8    9 1   
    10    8   11 1   
    11    8   16 1   
    12    9   10 2   
    13    9   19 1   
    14   11   12 1   
    15   11   17 1   
    16   11   18 1   
    17   12   13 1   
    18   12   14 1   
    19   19   20 1   
    20   19   28 1   
    21   20   21 1   
    22   20   23 1   
    23   20   29 1   
    24   21   22 2   
    25   21   41 1   
    26   23   24 1   
    27   23   30 1   
    28   23   31 1   
    29   24   25 1   
    30   24   32 1   
    31   24   33 1   
    32   25   26 1   
    33   25   34 1   
    34   25   35 1   
    35   26   27 1   
    36   26   36 1   
    37   26   37 1   
    38   27   38 1   
    39   27   39 1   
    40   27   40 1   
    41   41   42 1   
    42   41   49 1   
    43   42   43 1   
    44   42   45 1   
    45   42   50 1   
    46   43   44 2   
    47   43   53 1   
    48   45   46 1   
    49   45   51 1   
    50   45   52 1   
    51   46   47 1   
    52   46   48 1   
    53   53   54 1   
    54   53   57 1   
    55   54   55 1   
    56   54   58 1   
    57   54   59 1   
    58   55   56 2   
    59   55   60 1   
    60   60   61 1   
    61   60   68 1   
    62   61   62 1   
    63   61   64 1   
    64   61   69 1   
    65   62   63 2   
    66   62   74 1   
    67   64   65 1   
    68   64   70 1   
    69   64   71 1   
    70   65   66 1   
    71   65   67 2   
    72   66   72 1   
    73   66   73 1   
    74   74   75 1   
    75   74   78 1   
    76   75   76 1   
    77   75   79 1   
    78   75   80 1   
    79   76   77 2   
    80   76   81 1   
    81   81   82 1   
    82   81   93 1   
    83   82   83 1   
    84   82   85 1   
    85   82   94 1   
    86   83   84 2   
    87   83  102 1   
    88   85   86 1   
    89   85   95 1   
    90   85   96 1   
    91   86   87 ar  
    92   86   88 ar  
    93   87   89 ar  
    94   87   97 1   
    95   88   90 ar  
    96   88   98 1   
    97   89   91 ar  
    98   89   99 1   
    99   90   91 ar  
   100   90  100 1   
   101   91   92 1   
   102   92  101 1   
   103  102  103 1   
   104  102  110 1   
   105  103  104 1   
   106  103  106 1   
   107  103  111 1   
   108  104  105 2   
   109  104  121 1   
   110  106  107 1   
   111  106  108 1   
   112  106  112 1   
   113  107  109 1   
   114  107  113 1   
   115  107  114 1   
   116  108  115 1   
   117  108  116 1   
   118  108  117 1   
   119  109  118 1   
   120  109  119 1   
   121  109  120 1   
   122  121  122 1   
   123  121  127 1   
   124  122  123 1   
   125  122  125 1   
   126  122  128 1   
   127  123  124 2   
   128  123  132 1   
   129  125  126 1   
   130  125  129 1   
   131  125  130 1   
   132  126  131 1   
   133  132  133 1   
   134  132  137 1   
   135  133  134 1   
   136  133  136 1   
   137  133  138 1   
   138  134  135 2   
   139  134  142 1   
   140  136  139 1   
   141  136  140 1   
   142  136  141 1   
   143  142  143 1   
   144  142  147 1   
   145  143  144 1   
   146  143  146 1   
   147  143  148 1   
   148  144  145 2   
   149  144  152 1   
   150  146  149 1   
   151  146  150 1   
   152  146  151 1   
   153  152  153 1   
   154  152  161 1   
   155  153  154 1   
   156  153  156 1   
   157  153  162 1   
   158  154  155 2   
   159  154  167 1   
   160  156  157 1   
   161  156  163 1   
   162  156  164 1   
   163  157  158 1   
   164  157  165 1   
   165  157  166 1   
   166  158  159 1   
   167  158  160 1   
   168  167  168 1   
   169  167  172 1   
   170  168  169 1   
   171  168  170 1   
   172  168  171 1   
   173  174  175 1   
   174  174  176 1   
   175  177  178 1   
   176  177  179 1   
   177  180  181 1   
   178  180  182 1   
   179  183  184 1   
   180  183  185 1   
@<TRIPOS>SUBSTRUCTURE
     1 MOL         1 TEMP              0 ****  ****    0 ROOT
