@<TRIPOS>MOLECULE
MOL
  198   191     1     0     0
SMALL
resp


@<TRIPOS>ATOM
      1 C1          6.1290    0.6280    6.1860 c3        1 MOL     -0.338861
      2 C2          5.5940    0.6170    4.7090 c         1 MOL      0.667044
      3 O1          5.1500    1.6920    4.3850 o         1 MOL     -0.533583
      4 H1          6.3130   -0.3950    6.5130 hc        1 MOL      0.085793
      5 H2          7.0580    1.1970    6.2320 hc        1 MOL      0.085793
      6 H3          5.3880    1.0890    6.8390 hc        1 MOL      0.085793
      7 N1          5.5970   -0.4740    3.9640 n         1 MOL     -0.550527
      8 C3          5.3590   -0.5110    2.4720 c3        1 MOL      0.320951
      9 C4          3.8330   -0.4700    2.0420 c         1 MOL     -0.003994
     10 O2          3.5110   -0.5710    0.8320 o         1 MOL     -0.064116
     11 C5          6.0330   -1.6680    1.8980 c3        1 MOL     -0.175212
     12 C6          5.4840   -3.0470    2.4610 c         1 MOL      0.684959
     13 O3          4.5140   -3.6420    1.8820 o         1 MOL     -0.671257
     14 O4          5.9730   -3.5750    3.4720 o         1 MOL     -0.671257
     15 H4          6.0110   -1.2880    4.3900 hn        1 MOL      0.297596
     16 H5          5.8090    0.3590    2.0080 h1        1 MOL      0.055532
     17 H6          7.0650   -1.6480    2.2500 hc        1 MOL      0.027125
     18 H7          5.9340   -1.7680    0.8200 hc        1 MOL      0.027125
     19 N2          2.8150   -0.2980    2.8960 n         1 MOL     -0.382679
     20 C7          1.3840   -0.5450    2.5070 c3        1 MOL      0.174977
     21 C8          0.6180    0.7380    2.7900 c         1 MOL      0.449807
     22 O5          0.9070    1.4820    3.6640 o         1 MOL     -0.532236
     23 C9          0.8460   -1.7300    3.3720 c3        1 MOL     -0.158780
     24 C10         1.2910   -3.1290    2.8920 c3        1 MOL      0.019402
     25 C11         1.2910   -4.1080    4.0840 c3        1 MOL      0.000701
     26 C12         1.6830   -5.5000    3.7460 c3        1 MOL      0.156767
     27 N3          3.1510   -5.6840    3.3480 n4        1 MOL     -0.511700
     28 H8          2.9820   -0.1950    3.8770 hn        1 MOL      0.291222
     29 H9          1.3440   -0.6890    1.4290 h1        1 MOL      0.111112
     30 H10        -0.2420   -1.6390    3.3270 hc        1 MOL      0.068171
     31 H11         1.1320   -1.5660    4.4120 hc        1 MOL      0.068171
     32 H12         2.2670   -3.0810    2.3960 hc        1 MOL      0.003465
     33 H13         0.7030   -3.4390    2.0260 hc        1 MOL      0.003465
     34 H14         0.2890   -4.2460    4.4980 hc        1 MOL      0.029038
     35 H15         1.8510   -3.6570    4.9020 hc        1 MOL      0.029038
     36 H16         1.1770   -5.8680    2.8650 hx        1 MOL      0.027996
     37 H17         1.5400   -6.1450    4.6160 hx        1 MOL      0.027996
     38 H18         3.2150   -6.6610    3.0730 hn        1 MOL      0.349817
     39 H19         3.3430   -5.0440    2.6020 hn        1 MOL      0.349817
     40 H20         3.7280   -5.5490    4.1630 hn        1 MOL      0.349817
     41 N4         -0.4890    1.1100    2.2450 n         1 MOL     -0.258805
     42 C13        -1.2140    0.4230    1.1260 c3        1 MOL     -0.228043
     43 C14        -1.3760   -1.1130    1.0730 c         1 MOL      0.230710
     44 O6         -0.5840   -1.9090    0.5590 o         1 MOL     -0.359404
     45 C15        -0.5560    0.8630   -0.2100 c3        1 MOL     -0.258694
     46 C16        -0.8110    2.3250   -0.5980 c         1 MOL      0.557993
     47 O7         -1.9090    2.9440   -0.4350 o         1 MOL     -0.750345
     48 O8          0.1060    2.9430   -1.2180 o         1 MOL     -0.750345
     49 H21        -0.8640    2.0000    2.5470 hn        1 MOL      0.259710
     50 H22        -2.2160    0.8600    1.0890 h1        1 MOL      0.150353
     51 H23        -0.9250    0.2850   -1.0670 hc        1 MOL      0.223173
     52 H24         0.5070    0.6790   -0.0980 hc        1 MOL      0.223173
     53 N5         -2.4660   -1.5660    1.7400 n         1 MOL     -0.186607
     54 C17        -3.5780   -0.8420    2.3570 c3        1 MOL      0.013335
     55 C18        -4.8760   -1.6910    2.8820 c         1 MOL      0.468545
     56 O9         -4.7980   -2.8970    2.8990 o         1 MOL     -0.513628
     57 H25        -2.6250   -2.5630    1.6460 hn        1 MOL      0.196497
     58 H26        -3.9410   -0.1420    1.6050 h1        1 MOL      0.032551
     59 H27        -3.2780   -0.2480    3.2220 h1        1 MOL      0.032551
     60 N6         -5.8750   -1.0350    3.4860 n         1 MOL     -0.472995
     61 C19        -6.2760    0.3560    3.2740 c3        1 MOL      0.117150
     62 C20        -7.1610    0.5260    2.0140 c         1 MOL      0.462578
     63 O10        -7.8220   -0.4200    1.6430 o         1 MOL     -0.470493
     64 C21        -6.9410    1.0190    4.5160 c3        1 MOL     -0.061766
     65 C22        -7.8180    0.0630    5.3200 c         1 MOL      0.631792
     66 O11        -8.6610   -0.5720    4.6870 o         1 MOL     -0.639205
     67 O12        -7.5170   -0.1770    6.5110 o         1 MOL     -0.639205
     68 H28        -6.5640   -1.6640    3.8660 hn        1 MOL      0.362958
     69 H29        -5.3790    0.9690    3.1400 h1        1 MOL      0.009617
     70 H30        -7.4880    1.8860    4.1430 hc        1 MOL     -0.015933
     71 H31        -6.1570    1.4200    5.1450 hc        1 MOL     -0.015933
     72 N7         -7.2350    1.7450    1.4740 n         1 MOL     -0.210076
     73 C23        -8.0170    2.0480    0.3060 c3        1 MOL     -0.332845
     74 C24        -7.6900    1.1260   -0.8900 c         1 MOL      0.505628
     75 O13        -8.5680    0.9230   -1.7150 o         1 MOL     -0.530275
     76 H32        -6.6540    2.4800    1.8530 hn        1 MOL      0.199743
     77 H33        -7.8710    3.0850   -0.0060 h1        1 MOL      0.159772
     78 H34        -9.0700    1.8560    0.5120 h1        1 MOL      0.159772
     79 N8         -6.4610    0.7320   -1.0590 n         1 MOL     -0.156639
     80 C25        -5.9060   -0.1770   -2.0740 c3        1 MOL     -0.092761
     81 C26        -4.9430   -1.1250   -1.4470 c         1 MOL      0.268798
     82 O14        -4.1970   -0.7760   -0.5520 o         1 MOL     -0.253430
     83 C27        -5.2190    0.5650   -3.2810 c3        1 MOL      0.138110
     84 C28        -4.2470    1.6830   -2.7620 c3        1 MOL     -0.055089
     85 O15        -6.1800    1.2600   -4.0890 oh        1 MOL     -0.583319
     86 H35        -5.7690    1.0940   -0.4160 hn        1 MOL      0.119103
     87 H36        -6.7410   -0.6870   -2.5300 h1        1 MOL      0.157314
     88 H37        -4.6710   -0.0800   -3.9680 h1        1 MOL      0.078494
     89 H38        -5.6820    1.7410   -4.7650 ho        1 MOL      0.381938
     90 H39        -3.6770    2.1050   -3.5890 hc        1 MOL      0.018763
     91 H40        -4.8250    2.4480   -2.2360 hc        1 MOL      0.018763
     92 H41        -3.5680    1.2100   -2.0430 hc        1 MOL      0.018763
     93 N9         -4.8890   -2.3900   -1.8910 n         1 MOL     -0.221625
     94 C29        -3.9160   -3.4650   -1.5000 c3        1 MOL     -0.463841
     95 C30        -2.5070   -3.3370   -2.1570 c         1 MOL      0.464739
     96 O16        -1.6690   -4.2270   -2.0210 o         1 MOL     -0.496540
     97 C31        -4.4990   -4.8090   -1.8460 c3        1 MOL      0.226999
     98 C32        -4.7250   -5.1350   -3.3660 c3        1 MOL      0.028985
     99 C33        -5.7460   -5.0340   -1.1270 c3        1 MOL     -0.200050
    100 C34        -5.1150   -6.6310   -3.6090 c3        1 MOL     -0.243118
    101 H42        -5.6060   -2.6780   -2.5390 hn        1 MOL      0.249879
    102 H43        -3.7140   -3.4600   -0.4270 h1        1 MOL      0.250232
    103 H44        -3.8260   -5.5840   -1.4870 hc        1 MOL      0.021304
    104 H45        -3.7810   -4.8530   -3.8190 hc        1 MOL      0.013105
    105 H46        -5.5230   -4.5010   -3.7570 hc        1 MOL      0.013105
    106 H47        -6.1710   -6.0340   -1.1160 hc        1 MOL      0.055604
    107 H48        -5.7440   -4.7920   -0.0650 hc        1 MOL      0.055604
    108 H49        -6.5360   -4.4780   -1.6240 hc        1 MOL      0.055604
    109 H50        -5.1470   -6.7860   -4.6770 hc        1 MOL      0.065841
    110 H51        -4.3740   -7.2060   -3.0510 hc        1 MOL      0.065841
    111 H52        -6.0820   -6.8840   -3.1640 hc        1 MOL      0.065841
    112 N10        -2.1940   -2.2610   -2.9220 n         1 MOL      0.010046
    113 C35        -1.1060   -2.0920   -3.9210 c3        1 MOL     -0.214470
    114 C36         0.3810   -2.2780   -3.3900 c         1 MOL      0.371783
    115 O17         1.2880   -2.6040   -4.1920 o         1 MOL     -0.518294
    116 C37        -1.2140   -0.9510   -4.8830 c3        1 MOL      0.316332
    117 C38        -0.8430    0.3490   -4.3130 c3        1 MOL     -0.231997
    118 O18        -2.4960   -0.8380   -5.4030 oh        1 MOL     -0.681724
    119 H53        -2.7840   -1.4550   -2.8020 hn        1 MOL     -0.001723
    120 H54        -1.2230   -2.9470   -4.5740 h1        1 MOL      0.139800
    121 H55        -0.5720   -1.2460   -5.7250 h1        1 MOL      0.043432
    122 H56        -2.3910   -0.3230   -6.1950 ho        1 MOL      0.432427
    123 H57         0.1270    0.3780   -3.8160 hc        1 MOL      0.070256
    124 H58        -0.8130    0.9190   -5.2410 hc        1 MOL      0.070256
    125 H59        -1.6520    0.7990   -3.7550 hc        1 MOL      0.070256
    126 N11         0.6040   -2.1990   -2.0390 n         1 MOL     -0.100257
    127 C39         1.8940   -2.1290   -1.4900 c3        1 MOL     -0.062597
    128 C40         2.8050   -1.0590   -2.1230 c         1 MOL      0.552129
    129 O19         2.3160   -0.1080   -2.7410 o         1 MOL     -0.524003
    130 C41         2.4970   -3.5090   -1.2480 c3        1 MOL      0.099566
    131 C42         1.7350   -4.5270   -0.3620 c3        1 MOL     -0.055485
    132 O20         3.8200   -3.5160   -0.8440 oh        1 MOL     -0.533304
    133 H60        -0.2570   -2.1330   -1.5030 hn        1 MOL      0.137822
    134 H61         1.7440   -1.7460   -0.4790 h1        1 MOL     -0.033204
    135 H62         2.5270   -3.9430   -2.2440 h1        1 MOL      0.070892
    136 H63         3.8390   -3.5090    0.1150 ho        1 MOL      0.264982
    137 H64         1.9260   -5.5450   -0.6910 hc        1 MOL      0.025211
    138 H65         2.0990   -4.4850    0.6640 hc        1 MOL      0.025211
    139 H66         0.6660   -4.3220   -0.4440 hc        1 MOL      0.025211
    140 N12         4.1240   -1.1090   -1.9880 n         1 MOL     -0.473657
    141 C43         5.1170   -0.1600   -2.4770 c3        1 MOL      0.042627
    142 C44         4.9060    1.2750   -2.0660 c         1 MOL      0.471524
    143 O21         5.3850    2.1940   -2.7810 o         1 MOL     -0.608465
    144 C45         6.5180   -0.5880   -2.2800 c3        1 MOL     -0.030325
    145 C46         6.8570   -2.0270   -2.8050 c3        1 MOL      0.054559
    146 C47         8.1980   -2.6150   -2.2850 c3        1 MOL      0.014839
    147 C48         8.3740   -4.0050   -2.9270 c3        1 MOL      0.056603
    148 N13         9.7410   -4.5200   -2.8100 n4        1 MOL     -0.190586
    149 H67         4.4860   -1.9450   -1.5520 hn        1 MOL      0.361714
    150 H68         5.0950   -0.1040   -3.5640 h1        1 MOL      0.063794
    151 H69         6.7480   -0.4100   -1.2250 hc        1 MOL      0.024941
    152 H70         7.0500    0.1340   -2.8820 hc        1 MOL      0.024941
    153 H71         6.9410   -2.0630   -3.8880 hc        1 MOL     -0.000445
    154 H72         6.0940   -2.7030   -2.4150 hc        1 MOL     -0.000445
    155 H73         8.1410   -2.6970   -1.2000 hc        1 MOL      0.006485
    156 H74         8.9470   -1.8960   -2.6250 hc        1 MOL      0.006485
    157 H75         8.1250   -3.8680   -3.9880 hx        1 MOL      0.062140
    158 H76         7.6240   -4.6260   -2.4440 hx        1 MOL      0.062140
    159 H77         9.8180   -5.4770   -3.1130 hn        1 MOL      0.239807
    160 H78        10.4720   -3.9900   -3.2500 hn        1 MOL      0.239807
    161 H79         9.9760   -4.5420   -1.8280 hn        1 MOL      0.239807
    162 N14         4.3290    1.5810   -0.8750 n         1 MOL      0.036410
    163 C49         4.2040    2.9780   -0.4100 c3        1 MOL     -0.110186
    164 C50         5.6000    3.6740   -0.1950 c         1 MOL      0.334071
    165 O22         6.4360    3.3120    0.6470 o         1 MOL     -0.516247
    166 C51         3.3920    2.7880    0.9420 c3        1 MOL      0.137083
    167 C52         3.0910    4.0650    1.6430 c3        1 MOL     -0.414095
    168 C53         2.5270    5.2220    0.8000 c         1 MOL      0.818895
    169 O23         3.2720    6.2000    0.4370 o         1 MOL     -0.790194
    170 O24         1.3190    5.2580    0.4510 o         1 MOL     -0.790194
    171 H80         4.0450    0.8500   -0.2540 hn        1 MOL     -0.147099
    172 H81         3.5930    3.4880   -1.1460 h1        1 MOL      0.095037
    173 H82         4.1130    2.2760    1.5800 hc        1 MOL      0.030662
    174 H83         2.5530    2.1060    0.8360 hc        1 MOL      0.030662
    175 H84         4.0350    4.4560    2.0210 hc        1 MOL      0.129862
    176 H85         2.4270    3.8960    2.4980 hc        1 MOL      0.129862
    177 N15         5.8410    4.7830   -0.9010 n         1 MOL      0.036079
    178 C54         7.1420    5.4540   -0.8540 c3        1 MOL     -0.207802
    179 H86         6.9960    6.5130   -0.6410 h1        1 MOL      0.080439
    180 H87         7.7540    5.0070   -0.0700 h1        1 MOL      0.080439
    181 H88         7.6440    5.3440   -1.8150 h1        1 MOL      0.080439
    182 H89         5.1770    5.0550   -1.6100 hn        1 MOL      0.145745
    183 Ca1        -1.0530    5.3340   -0.4950 Ca        1 MOL      1.822449
    184 O25         1.1330    6.5580   -1.7900 oh        1 MOL     -0.883214
    185 H90         1.5820    6.2820   -0.9900 ho        1 MOL      0.434330
    186 H91         1.8290    6.6640   -2.4420 ho        1 MOL      0.434330
    187 O26        -1.9350    7.6980   -1.4690 oh        1 MOL     -0.883214
    188 H92        -2.1720    7.8600   -2.3900 ho        1 MOL      0.434330
    189 H93        -2.3300    8.4240   -0.9940 ho        1 MOL      0.434330
    190 O27        -1.0850    4.8020   -3.1230 oh        1 MOL     -0.883214
    191 H94        -0.3050    4.3780   -3.4750 ho        1 MOL      0.434330
    192 H95        -1.3250    5.4520   -3.7780 ho        1 MOL      0.434330
    193 O28        -3.5770    4.9890   -1.7760 oh        1 MOL     -0.883214
    194 H96        -4.3530    5.1490   -2.3250 ho        1 MOL      0.434330
    195 H97        -3.4980    4.0380   -1.7520 ho        1 MOL      0.434330
    196 O29        -0.3210    7.4670    1.0390 oh        1 MOL     -0.883214
    197 H98         0.6350    7.4800    1.0860 ho        1 MOL      0.434330
    198 H99        -0.5890    8.3750    1.1980 ho        1 MOL      0.434330
@<TRIPOS>BOND
     1    1    2 1   
     2    1    4 1   
     3    1    5 1   
     4    1    6 1   
     5    2    3 2   
     6    2    7 1   
     7    7    8 1   
     8    7   15 1   
     9    8    9 1   
    10    8   11 1   
    11    8   16 1   
    12    9   10 2   
    13    9   19 1   
    14   11   12 1   
    15   11   17 1   
    16   11   18 1   
    17   12   13 1   
    18   12   14 1   
    19   19   20 1   
    20   19   28 1   
    21   20   21 1   
    22   20   23 1   
    23   20   29 1   
    24   21   22 2   
    25   21   41 1   
    26   23   24 1   
    27   23   30 1   
    28   23   31 1   
    29   24   25 1   
    30   24   32 1   
    31   24   33 1   
    32   25   26 1   
    33   25   34 1   
    34   25   35 1   
    35   26   27 1   
    36   26   36 1   
    37   26   37 1   
    38   27   38 1   
    39   27   39 1   
    40   27   40 1   
    41   41   42 1   
    42   41   49 1   
    43   42   43 1   
    44   42   45 1   
    45   42   50 1   
    46   43   44 2   
    47   43   53 1   
    48   45   46 1   
    49   45   51 1   
    50   45   52 1   
    51   46   47 1   
    52   46   48 1   
    53   53   54 1   
    54   53   57 1   
    55   54   55 1   
    56   54   58 1   
    57   54   59 1   
    58   55   56 2   
    59   55   60 1   
    60   60   61 1   
    61   60   68 1   
    62   61   62 1   
    63   61   64 1   
    64   61   69 1   
    65   62   63 2   
    66   62   72 1   
    67   64   65 1   
    68   64   70 1   
    69   64   71 1   
    70   65   66 1   
    71   65   67 1   
    72   72   73 1   
    73   72   76 1   
    74   73   74 1   
    75   73   77 1   
    76   73   78 1   
    77   74   75 2   
    78   74   79 1   
    79   79   80 1   
    80   79   86 1   
    81   80   81 1   
    82   80   83 1   
    83   80   87 1   
    84   81   82 2   
    85   81   93 1   
    86   83   84 1   
    87   83   85 1   
    88   83   88 1   
    89   84   90 1   
    90   84   91 1   
    91   84   92 1   
    92   85   89 1   
    93   93   94 1   
    94   93  101 1   
    95   94   95 1   
    96   94   97 1   
    97   94  102 1   
    98   95   96 2   
    99   95  112 1   
   100   97   98 1   
   101   97   99 1   
   102   97  103 1   
   103   98  100 1   
   104   98  104 1   
   105   98  105 1   
   106   99  106 1   
   107   99  107 1   
   108   99  108 1   
   109  100  109 1   
   110  100  110 1   
   111  100  111 1   
   112  112  113 1   
   113  112  119 1   
   114  113  114 1   
   115  113  116 1   
   116  113  120 1   
   117  114  115 2   
   118  114  126 1   
   119  116  117 1   
   120  116  118 1   
   121  116  121 1   
   122  117  123 1   
   123  117  124 1   
   124  117  125 1   
   125  118  122 1   
   126  126  127 1   
   127  126  133 1   
   128  127  128 1   
   129  127  130 1   
   130  127  134 1   
   131  128  129 2   
   132  128  140 1   
   133  130  131 1   
   134  130  132 1   
   135  130  135 1   
   136  131  137 1   
   137  131  138 1   
   138  131  139 1   
   139  132  136 1   
   140  140  141 1   
   141  140  149 1   
   142  141  142 1   
   143  141  144 1   
   144  141  150 1   
   145  142  143 2   
   146  142  162 1   
   147  144  145 1   
   148  144  151 1   
   149  144  152 1   
   150  145  146 1   
   151  145  153 1   
   152  145  154 1   
   153  146  147 1   
   154  146  155 1   
   155  146  156 1   
   156  147  148 1   
   157  147  157 1   
   158  147  158 1   
   159  148  159 1   
   160  148  160 1   
   161  148  161 1   
   162  162  163 1   
   163  162  171 1   
   164  163  164 1   
   165  163  166 1   
   166  163  172 1   
   167  164  165 2   
   168  164  177 1   
   169  166  167 1   
   170  166  173 1   
   171  166  174 1   
   172  167  168 1   
   173  167  175 1   
   174  167  176 1   
   175  168  169 1   
   176  168  170 1   
   177  177  178 1   
   178  177  182 1   
   179  178  179 1   
   180  178  180 1   
   181  178  181 1   
   182  184  185 1   
   183  184  186 1   
   184  187  188 1   
   185  187  189 1   
   186  190  191 1   
   187  190  192 1   
   188  193  194 1   
   189  193  195 1   
   190  196  197 1   
   191  196  198 1   
@<TRIPOS>SUBSTRUCTURE
     1 MOL         1 TEMP              0 ****  ****    0 ROOT
