@<TRIPOS>MOLECULE
MOL
  178   175     1     0     0
SMALL
resp


@<TRIPOS>ATOM
      1 C1          1.6800    6.2150   -1.9650 c3        1 MOL     -0.425772
      2 C2          3.0960    5.9940   -1.4490 c         1 MOL      0.741810
      3 O1          3.4470    6.5250   -0.4170 o         1 MOL     -0.594620
      4 H1          1.5900    5.8000   -2.9690 hc        1 MOL      0.101572
      5 H2          0.9700    5.7200   -1.3030 hc        1 MOL      0.101572
      6 H3          1.4660    7.2840   -1.9940 hc        1 MOL      0.101572
      7 N1          3.9380    5.2920   -2.2050 n         1 MOL     -0.624788
      8 C3          5.2640    4.8200   -1.5720 c3        1 MOL      0.156159
      9 C4          5.0290    3.7650   -0.5530 c         1 MOL      0.530913
     10 O2          4.4910    2.6990   -0.9000 o         1 MOL     -0.551305
     11 C5          6.2120    4.4010   -2.6710 c3        1 MOL     -0.163098
     12 C6          7.5150    3.8640   -2.1240 c         1 MOL      0.722839
     13 O3          7.9120    2.7700   -2.5800 o         1 MOL     -0.731096
     14 O4          8.0910    4.5090   -1.2040 o         1 MOL     -0.731096
     15 H4          3.5800    4.8050   -3.0160 hn        1 MOL      0.325899
     16 H5          5.7230    5.6540   -1.0470 h1        1 MOL      0.055413
     17 H6          6.3550    5.2630   -3.3250 hc        1 MOL      0.006307
     18 H7          5.7080    3.6550   -3.2830 hc        1 MOL      0.006307
     19 N2          5.5750    3.8210    0.6450 n         1 MOL     -0.510952
     20 C7          5.5720    2.7730    1.6650 c3        1 MOL      0.565948
     21 C8          4.2350    2.7470    2.5170 c         1 MOL      0.267911
     22 O5          3.4380    3.6860    2.3740 o         1 MOL     -0.513548
     23 C9          6.8610    2.9380    2.4590 c3        1 MOL     -0.376349
     24 H8          6.0990    4.6580    0.8360 hn        1 MOL      0.264484
     25 H9          5.5600    1.8190    1.1360 h1        1 MOL      0.025548
     26 H10         7.7200    2.6120    1.8900 hc        1 MOL      0.084446
     27 H11         6.9930    3.9880    2.7340 hc        1 MOL      0.084446
     28 H12         6.8460    2.4660    3.4360 hc        1 MOL      0.084446
     29 N3          4.0500    1.8790    3.4490 n         1 MOL     -0.221064
     30 C10         4.6620    0.6040    3.7650 c3        1 MOL     -0.047784
     31 C11         4.7670   -0.3380    2.5650 c         1 MOL      0.220045
     32 O6          3.9900   -0.2530    1.5930 o         1 MOL     -0.345267
     33 C12         3.7710   -0.0220    4.8800 c3        1 MOL     -0.273420
     34 C13         2.3240    0.0790    4.5810 c         1 MOL      0.811496
     35 O7          1.8050   -0.7210    3.7490 o         1 MOL     -0.698487
     36 O8          1.7050    0.9720    5.1920 o         1 MOL     -0.698487
     37 H13         3.3540    2.0930    4.1480 hn        1 MOL      0.241375
     38 H14         5.6730    0.7610    4.1290 h1        1 MOL      0.081623
     39 H15         3.8940    0.5150    5.8220 hc        1 MOL      0.078868
     40 H16         4.0160   -1.0650    5.0720 hc        1 MOL      0.078868
     41 N4          5.7540   -1.2810    2.6100 n         1 MOL     -0.381176
     42 C14         6.2100   -1.9640    1.3730 c3        1 MOL      0.087404
     43 C15         7.1820   -1.0790    0.4590 c         1 MOL      0.446896
     44 O9          7.4700    0.1040    0.7330 o         1 MOL     -0.486793
     45 H17         6.5050   -1.1500    3.2760 hn        1 MOL      0.297212
     46 H18         5.3350   -2.1880    0.7570 h1        1 MOL      0.031391
     47 H19         6.7000   -2.8920    1.6570 h1        1 MOL      0.031391
     48 N5          7.6110   -1.5970   -0.6930 n         1 MOL     -0.369046
     49 C16         7.4700   -2.9060   -1.3430 c3        1 MOL     -0.106340
     50 C17         6.1640   -3.0960   -2.2320 c         1 MOL      0.565249
     51 O10         5.7720   -4.2720   -2.4860 o         1 MOL     -0.536117
     52 C18         8.7870   -3.0810   -2.1470 c3        1 MOL     -0.306226
     53 C19        10.0960   -3.0170   -1.4310 c         1 MOL      0.742756
     54 N6         10.6040   -4.0790   -0.8680 n         1 MOL     -0.799174
     55 O11        10.8040   -2.0240   -1.4790 o         1 MOL     -0.554456
     56 H20         8.2480   -1.0200   -1.2320 hn        1 MOL      0.323094
     57 H21         7.3520   -3.7230   -0.6330 h1        1 MOL      0.093902
     58 H22         8.8190   -2.4170   -3.0170 hc        1 MOL      0.104713
     59 H23         8.8310   -4.1110   -2.5050 hc        1 MOL      0.104713
     60 H24        10.0570   -4.9170   -0.7170 hn        1 MOL      0.356773
     61 H25        11.5310   -4.1290   -0.4850 hn        1 MOL      0.356773
     62 N7          5.4070   -2.0460   -2.5100 n         1 MOL     -0.338715
     63 C20         4.1870   -2.2110   -3.3320 c3        1 MOL     -0.239256
     64 C21         3.0830   -3.0510   -2.7570 c         1 MOL      0.529368
     65 O12         2.5110   -3.8930   -3.4920 o         1 MOL     -0.574801
     66 H26         5.6340   -1.1680   -2.0780 hn        1 MOL      0.294699
     67 H27         4.4740   -2.5610   -4.3220 h1        1 MOL      0.142898
     68 H28         3.8280   -1.1920   -3.5050 h1        1 MOL      0.142898
     69 N8          2.6000   -2.7440   -1.5840 n         1 MOL     -0.086918
     70 C22         1.4980   -3.4240   -0.9740 c3        1 MOL     -0.158185
     71 C23         0.2180   -2.6510   -1.1620 c         1 MOL      0.393344
     72 O13         0.1180   -1.4740   -0.8180 o         1 MOL     -0.600915
     73 C24         1.8160   -3.8440    0.4510 c3        1 MOL      0.361552
     74 C25         3.0790   -4.6450    0.5300 c3        1 MOL     -0.381698
     75 O14         1.9690   -2.6880    1.2900 oh        1 MOL     -0.375030
     76 H29         2.9710   -1.9640   -1.0540 hn        1 MOL      0.111013
     77 H30         1.4190   -4.3070   -1.6160 h1        1 MOL      0.104838
     78 H31         0.9040   -4.3860    0.7100 h1        1 MOL      0.001698
     79 H32         1.9300   -2.9820    2.2100 ho        1 MOL      0.281498
     80 H33         3.8860   -4.0670    0.0650 hc        1 MOL      0.091332
     81 H34         3.3610   -4.8800    1.5470 hc        1 MOL      0.091332
     82 H35         3.0520   -5.5230   -0.1120 hc        1 MOL      0.091332
     83 N9         -0.8050   -3.3430   -1.5740 n         1 MOL     -0.177689
     84 C26        -2.1860   -2.9040   -1.3710 c3        1 MOL     -0.064623
     85 C27        -2.7700   -3.3720   -0.0220 c         1 MOL      0.265233
     86 O15        -2.6770   -4.5430    0.3520 o         1 MOL     -0.512982
     87 C28        -3.1220   -3.4110   -2.5450 c3        1 MOL      0.200456
     88 C29        -4.5530   -2.8230   -2.4360 c3        1 MOL      0.187895
     89 C30        -2.5510   -2.9240   -3.8920 c3        1 MOL     -0.405244
     90 C31        -5.5440   -3.0750   -3.6130 c3        1 MOL     -0.428706
     91 H36        -0.6220   -4.2940   -1.8550 hn        1 MOL      0.221441
     92 H37        -2.1770   -1.8160   -1.3900 h1        1 MOL      0.223121
     93 H38        -3.1350   -4.5050   -2.5100 hc        1 MOL     -0.008908
     94 H39        -4.5110   -1.7510   -2.2400 hc        1 MOL     -0.063206
     95 H40        -4.8820   -3.1710   -1.4550 hc        1 MOL     -0.063206
     96 H41        -3.1860   -3.4220   -4.6290 hc        1 MOL      0.087283
     97 H42        -2.6710   -1.8510   -4.0460 hc        1 MOL      0.087283
     98 H43        -1.4820   -3.0710   -3.9780 hc        1 MOL      0.087283
     99 H44        -5.7420   -4.1390   -3.7620 hc        1 MOL      0.100489
    100 H45        -6.4770   -2.7240   -3.1750 hc        1 MOL      0.100489
    101 H46        -5.1850   -2.5420   -4.4860 hc        1 MOL      0.100489
    102 N10        -3.5060   -2.4660    0.6070 n         1 MOL      0.004539
    103 C32        -4.1560   -2.6780    1.9230 c3        1 MOL     -0.042436
    104 C33        -5.5550   -2.0230    1.9440 c         1 MOL      0.509782
    105 O16        -6.3780   -2.4440    2.7420 o         1 MOL     -0.554201
    106 C34        -3.2980   -2.0430    2.9940 c3        1 MOL     -0.059281
    107 C35        -1.8330   -2.6810    3.2090 c         1 MOL      0.698680
    108 O17        -1.6880   -3.5470    4.1150 o         1 MOL     -0.696440
    109 O18        -0.8780   -2.2920    2.5070 o         1 MOL     -0.696440
    110 H47        -2.9950   -1.5980    0.4920 hn        1 MOL      0.059635
    111 H48        -4.2800   -3.7380    2.1310 h1        1 MOL      0.095688
    112 H49        -3.8060   -2.1630    3.9480 hc        1 MOL      0.011876
    113 H50        -3.1330   -0.9720    2.8350 hc        1 MOL      0.011876
    114 N11        -5.9120   -1.0650    1.0580 n         1 MOL     -0.605068
    115 C36        -7.2410   -0.3170    0.9410 c3        1 MOL      0.208210
    116 C37        -7.1020    1.1210    0.3170 c         1 MOL      0.287264
    117 O19        -7.6710    1.3780   -0.7670 o         1 MOL     -0.535849
    118 C38        -8.1200   -1.1760    0.0700 c3        1 MOL     -0.215731
    119 C39        -9.6010   -0.9650    0.2100 ca        1 MOL      0.191717
    120 C40       -10.2270   -0.7340    1.4140 ca        1 MOL     -0.238898
    121 C41       -10.3960   -1.0260   -0.9750 ca        1 MOL     -0.238898
    122 C42       -11.5370   -0.3340    1.4740 ca        1 MOL     -0.014628
    123 C43       -11.7200   -0.6490   -0.8950 ca        1 MOL     -0.014628
    124 C44       -12.3380   -0.3770    0.3500 ca        1 MOL     -0.241130
    125 H51        -5.1770   -0.7900    0.4260 hn        1 MOL      0.312735
    126 H52        -7.6070   -0.2210    1.9620 h1        1 MOL      0.058026
    127 H53        -7.9500   -2.2050    0.3880 hc        1 MOL      0.104470
    128 H54        -7.7440   -1.3120   -0.9420 hc        1 MOL      0.104470
    129 H55        -9.6490   -0.6930    2.3250 ha        1 MOL      0.123956
    130 H56        -9.9210   -1.3840   -1.8820 ha        1 MOL      0.123956
    131 H57       -11.9700   -0.0930    2.4380 ha        1 MOL      0.075678
    132 H58       -12.3290   -0.6640   -1.7760 ha        1 MOL      0.075678
    133 H59       -13.3590   -0.0260    0.3670 ha        1 MOL      0.116045
    134 N12        -6.3370    1.9870    0.9320 n         1 MOL      0.078556
    135 C45        -6.2330    3.3950    0.4960 c3        1 MOL     -0.096669
    136 C46        -5.4140    3.5500   -0.7980 c         1 MOL      0.242387
    137 O20        -5.1780    4.6580   -1.3800 o         1 MOL     -0.520249
    138 C47        -5.4920    4.1120    1.6770 c3        1 MOL     -0.067090
    139 C48        -5.9360    3.3230    2.8560 c3        1 MOL     -0.069872
    140 C49        -5.9470    1.8390    2.3880 c3        1 MOL     -0.184730
    141 H60        -7.2750    3.7000    0.3630 h1        1 MOL      0.105098
    142 H61        -4.4200    4.2240    1.4930 hc        1 MOL      0.067988
    143 H62        -5.7370    5.1740    1.6180 hc        1 MOL      0.067988
    144 H63        -5.2470    3.5690    3.6620 hc        1 MOL      0.037860
    145 H64        -6.9540    3.5670    3.1310 hc        1 MOL      0.037860
    146 H65        -4.9330    1.4350    2.3260 h1        1 MOL      0.129068
    147 H66        -6.7260    1.2790    2.9000 h1        1 MOL      0.129068
    148 N13        -4.9140    2.4570   -1.3480 n         1 MOL      0.100632
    149 C50        -4.2270    2.5300   -2.6600 c3        1 MOL     -0.128950
    150 C51        -5.2130    2.3040   -3.8220 c         1 MOL      0.523268
    151 O21        -5.3180    3.1840   -4.6140 o         1 MOL     -0.522978
    152 C52        -3.2170    1.3610   -2.6200 c3        1 MOL      0.114844
    153 C53        -2.2180    1.4070   -1.4450 c3        1 MOL     -0.473098
    154 C54        -2.6260    0.7320   -0.1390 c         1 MOL      0.583753
    155 O22        -1.7560    0.3350    0.6900 o         1 MOL     -0.616209
    156 O23        -3.8010    0.3140   -0.0070 o         1 MOL     -0.616209
    157 H67        -4.9020    1.5940   -0.8150 hn        1 MOL      0.175829
    158 H68        -3.6950    3.4750   -2.8000 h1        1 MOL      0.083286
    159 H69        -2.6920    1.2490   -3.5630 hc        1 MOL     -0.017987
    160 H70        -3.8790    0.4960   -2.5150 hc        1 MOL     -0.017987
    161 H71        -2.0820    2.4680   -1.2090 hc        1 MOL      0.145081
    162 H72        -1.2760    0.9800   -1.7780 hc        1 MOL      0.145081
    163 N14        -6.0880    1.3020   -3.7220 n         1 MOL     -0.320502
    164 C55        -7.3320    1.2190   -4.4550 c3        1 MOL     -0.404599
    165 H73        -7.1200    1.1310   -5.5200 h1        1 MOL      0.147865
    166 H74        -7.8920    0.3450   -4.1230 h1        1 MOL      0.147865
    167 H75        -7.9210    2.1190   -4.2760 h1        1 MOL      0.147865
    168 H76        -6.0960    0.8150   -2.8430 hn        1 MOL      0.303653
    169 Ca1         0.5430   -0.4450    1.4700 Ca        1 MOL      1.616668
    170 O24         2.3700    0.6550   -0.2870 oh        1 MOL     -0.805824
    171 H77         2.6470    1.4060   -0.8270 ho        1 MOL      0.377922
    172 H78         3.1650    0.3660    0.1590 ho        1 MOL      0.377922
    173 O25        -0.7700    0.6530    4.0170 oh        1 MOL     -0.805824
    174 H79         0.0830    0.5320    4.4170 ho        1 MOL      0.377922
    175 H80        -0.8820    1.6050    3.9720 ho        1 MOL      0.377922
    176 O26         0.9900    2.0420    2.0160 oh        1 MOL     -0.805824
    177 H81         0.3340    2.5780    2.4720 ho        1 MOL      0.377922
    178 H82         1.8220    2.4570    2.2300 ho        1 MOL      0.377922
@<TRIPOS>BOND
     1    1    2 1   
     2    1    4 1   
     3    1    5 1   
     4    1    6 1   
     5    2    3 2   
     6    2    7 1   
     7    7    8 1   
     8    7   15 1   
     9    8    9 1   
    10    8   11 1   
    11    8   16 1   
    12    9   10 2   
    13    9   19 1   
    14   11   12 1   
    15   11   17 1   
    16   11   18 1   
    17   12   13 1   
    18   12   14 1   
    19   19   20 1   
    20   19   24 1   
    21   20   21 1   
    22   20   23 1   
    23   20   25 1   
    24   21   22 2   
    25   21   29 1   
    26   23   26 1   
    27   23   27 1   
    28   23   28 1   
    29   29   30 1   
    30   29   37 1   
    31   30   31 1   
    32   30   33 1   
    33   30   38 1   
    34   31   32 2   
    35   31   41 1   
    36   33   34 1   
    37   33   39 1   
    38   33   40 1   
    39   34   35 1   
    40   34   36 1   
    41   41   42 1   
    42   41   45 1   
    43   42   43 1   
    44   42   46 1   
    45   42   47 1   
    46   43   44 2   
    47   43   48 1   
    48   48   49 1   
    49   48   56 1   
    50   49   50 1   
    51   49   52 1   
    52   49   57 1   
    53   50   51 2   
    54   50   62 1   
    55   52   53 1   
    56   52   58 1   
    57   52   59 1   
    58   53   54 1   
    59   53   55 2   
    60   54   60 1   
    61   54   61 1   
    62   62   63 1   
    63   62   66 1   
    64   63   64 1   
    65   63   67 1   
    66   63   68 1   
    67   64   65 2   
    68   64   69 1   
    69   69   70 1   
    70   69   76 1   
    71   70   71 1   
    72   70   73 1   
    73   70   77 1   
    74   71   72 2   
    75   71   83 1   
    76   73   74 1   
    77   73   75 1   
    78   73   78 1   
    79   74   80 1   
    80   74   81 1   
    81   74   82 1   
    82   75   79 1   
    83   83   84 1   
    84   83   91 1   
    85   84   85 1   
    86   84   87 1   
    87   84   92 1   
    88   85   86 2   
    89   85  102 1   
    90   87   88 1   
    91   87   89 1   
    92   87   93 1   
    93   88   90 1   
    94   88   94 1   
    95   88   95 1   
    96   89   96 1   
    97   89   97 1   
    98   89   98 1   
    99   90   99 1   
   100   90  100 1   
   101   90  101 1   
   102  102  103 1   
   103  102  110 1   
   104  103  104 1   
   105  103  106 1   
   106  103  111 1   
   107  104  105 2   
   108  104  114 1   
   109  106  107 1   
   110  106  112 1   
   111  106  113 1   
   112  107  108 1   
   113  107  109 1   
   114  114  115 1   
   115  114  125 1   
   116  115  116 1   
   117  115  118 1   
   118  115  126 1   
   119  116  117 2   
   120  116  134 1   
   121  118  119 1   
   122  118  127 1   
   123  118  128 1   
   124  119  120 ar  
   125  119  121 ar  
   126  120  122 ar  
   127  120  129 1   
   128  121  123 ar  
   129  121  130 1   
   130  122  124 ar  
   131  122  131 1   
   132  123  124 ar  
   133  123  132 1   
   134  124  133 1   
   135  134  135 1   
   136  134  140 1   
   137  135  136 1   
   138  135  138 1   
   139  135  141 1   
   140  136  137 2   
   141  136  148 1   
   142  138  139 1   
   143  138  142 1   
   144  138  143 1   
   145  139  140 1   
   146  139  144 1   
   147  139  145 1   
   148  140  146 1   
   149  140  147 1   
   150  148  149 1   
   151  148  157 1   
   152  149  150 1   
   153  149  152 1   
   154  149  158 1   
   155  150  151 2   
   156  150  163 1   
   157  152  153 1   
   158  152  159 1   
   159  152  160 1   
   160  153  154 1   
   161  153  161 1   
   162  153  162 1   
   163  154  155 1   
   164  154  156 1   
   165  163  164 1   
   166  163  168 1   
   167  164  165 1   
   168  164  166 1   
   169  164  167 1   
   170  170  171 1   
   171  170  172 1   
   172  173  174 1   
   173  173  175 1   
   174  176  177 1   
   175  176  178 1   
@<TRIPOS>SUBSTRUCTURE
     1 MOL         1 TEMP              0 ****  ****    0 ROOT
