@<TRIPOS>MOLECULE
MOL
  192   187     1     0     0
SMALL
resp


@<TRIPOS>ATOM
      1 C1         11.8230    5.6810   -2.5070 c3        1 MOL     -0.178574
      2 C2         11.7990    4.2730   -1.8290 c         1 MOL      0.668447
      3 O1         12.9070    3.7840   -1.5630 o         1 MOL     -0.558812
      4 H1         12.8520    6.0360   -2.5700 hc        1 MOL      0.043547
      5 H2         11.4030    5.6100   -3.5100 hc        1 MOL      0.043547
      6 H3         11.2340    6.3800   -1.9140 hc        1 MOL      0.043547
      7 N1         10.6300    3.7710   -1.4650 n         1 MOL     -0.400396
      8 C3         10.4050    2.6610   -0.5870 c3        1 MOL     -0.365696
      9 C4          9.0190    2.0680   -0.8060 c         1 MOL      0.929425
     10 O2          8.0300    2.7650   -0.8800 o         1 MOL     -0.697465
     11 C5         10.5210    3.0370    0.9470 c3        1 MOL      0.120505
     12 C6          9.9830    4.4520    1.2550 c         1 MOL      0.648587
     13 O3          8.8220    4.7700    0.8560 o         1 MOL     -0.692654
     14 O4         10.7360    5.1880    1.9390 o         1 MOL     -0.692654
     15 H4          9.8340    4.3250   -1.7380 hn        1 MOL      0.188368
     16 H5         11.1170    1.8780   -0.8170 h1        1 MOL      0.113270
     17 H6         11.5930    3.0150    1.0980 hc        1 MOL      0.017287
     18 H7         10.0230    2.2630    1.5350 hc        1 MOL      0.017287
     19 N2          8.9100    0.7760   -0.9590 n         1 MOL     -0.641116
     20 C7          7.6090    0.0800   -1.0380 c3        1 MOL      0.057946
     21 C8          6.9950   -0.0310    0.2950 c         1 MOL      0.384513
     22 O5          7.6300   -0.4130    1.3280 o         1 MOL     -0.497032
     23 C9          7.9200   -1.3370   -1.5180 c3        1 MOL     -0.247060
     24 C10         6.6340   -1.9990   -2.0660 c3        1 MOL      0.211050
     25 C11         6.9050   -3.3700   -2.7160 c3        1 MOL     -0.232939
     26 C12         7.3500   -4.4350   -1.7510 c3        1 MOL      0.097486
     27 N3          7.2980   -5.7870   -2.4330 n4        1 MOL     -0.308113
     28 H8          9.6560    0.1220   -0.7670 hn        1 MOL      0.343664
     29 H9          6.9530    0.4860   -1.8210 h1        1 MOL      0.087326
     30 H10         8.4130   -1.9590   -0.7680 hc        1 MOL      0.091398
     31 H11         8.6060   -1.2770   -2.3600 hc        1 MOL      0.091398
     32 H12         6.0850   -1.4840   -2.8570 hc        1 MOL     -0.005704
     33 H13         5.9210   -2.1760   -1.2650 hc        1 MOL     -0.005704
     34 H14         7.7670   -3.3080   -3.3870 hc        1 MOL      0.052476
     35 H15         5.9820   -3.6810   -3.1980 hc        1 MOL      0.052476
     36 H16         6.8490   -4.4490   -0.7860 hx        1 MOL      0.084186
     37 H17         8.3630   -4.1380   -1.4980 hx        1 MOL      0.084186
     38 H18         7.8940   -5.6970   -3.2470 hn        1 MOL      0.293360
     39 H19         7.6860   -6.4660   -1.7960 hn        1 MOL      0.293360
     40 H20         6.4030   -6.0460   -2.8050 hn        1 MOL      0.293360
     41 N4          5.7260    0.3120    0.3560 n         1 MOL     -0.068365
     42 C13         4.9230    0.0330    1.5360 c3        1 MOL     -0.005507
     43 C14         3.5020    0.2720    1.1240 c         1 MOL      0.169367
     44 O6          3.2230    1.0120    0.1170 o         1 MOL     -0.495314
     45 C15         5.3100    1.0500    2.6990 c3        1 MOL     -0.142893
     46 C16         5.6310    2.4200    2.1540 c         1 MOL      0.569545
     47 O7          6.7600    2.8710    2.1990 o         1 MOL     -0.641112
     48 O8          4.6870    3.1260    1.7110 o         1 MOL     -0.641112
     49 H21         5.3010    0.3590   -0.5580 hn        1 MOL      0.134904
     50 H22         4.8820   -1.0180    1.8460 h1        1 MOL      0.044695
     51 H23         6.1720    0.6670    3.2340 hc        1 MOL      0.082342
     52 H24         4.4750    1.0420    3.4000 hc        1 MOL      0.082342
     53 N5          2.5230   -0.3760    1.6880 n         1 MOL     -0.059149
     54 C17         2.5150   -1.3290    2.8200 c3        1 MOL     -0.249729
     55 C18         2.8140   -2.8110    2.3800 c         1 MOL      0.745234
     56 O9          3.1280   -3.0800    1.2500 o         1 MOL     -0.547517
     57 H25         1.5830   -0.2630    1.3100 hn        1 MOL      0.223642
     58 H26         1.4980   -1.3320    3.1900 h1        1 MOL      0.105829
     59 H27         3.2250   -0.9490    3.5600 h1        1 MOL      0.105829
     60 N6          2.6410   -3.8350    3.2190 n         1 MOL     -0.625109
     61 C19         3.0720   -5.2570    2.9500 c3        1 MOL      0.369249
     62 C20         2.2200   -6.0260    1.9050 c         1 MOL      0.432982
     63 O10         2.8190   -6.8790    1.2230 o         1 MOL     -0.492234
     64 C21         3.2000   -5.9630    4.2750 c3        1 MOL     -0.235821
     65 C22         4.0820   -7.1680    4.3630 c         1 MOL      0.758698
     66 O11         4.9320   -7.3570    3.5100 o         1 MOL     -0.687297
     67 O12         4.0900   -7.8680    5.4070 o         1 MOL     -0.687297
     68 H28         2.4600   -3.5890    4.1790 hn        1 MOL      0.266321
     69 H29         4.0900   -5.1040    2.5820 h1        1 MOL     -0.007548
     70 H30         2.1820   -6.2160    4.5930 hc        1 MOL      0.023126
     71 H31         3.5910   -5.1920    4.9360 hc        1 MOL      0.023126
     72 N7          0.8860   -5.6700    1.8350 n         1 MOL     -0.376709
     73 C23         0.0270   -6.2330    0.8120 c3        1 MOL     -0.087809
     74 C24        -0.0770   -5.2460   -0.4010 c         1 MOL      0.379787
     75 O13        -0.5460   -5.6890   -1.4690 o         1 MOL     -0.530553
     76 H32         0.5430   -4.8940    2.3690 hn        1 MOL      0.236633
     77 H33        -0.9780   -6.4840    1.1690 h1        1 MOL      0.121234
     78 H34         0.3150   -7.2470    0.5250 h1        1 MOL      0.121234
     79 N8          0.4430   -3.9730   -0.3440 n         1 MOL     -0.157398
     80 C25         0.6610   -3.0420   -1.4640 c3        1 MOL      0.322011
     81 C26         0.1740   -1.6270   -1.2460 c         1 MOL      0.100536
     82 O14         0.4790   -1.0850   -0.1580 o         1 MOL     -0.453707
     83 C27         2.1000   -2.7950   -1.7480 c3        1 MOL      0.034575
     84 C28         2.9860   -4.0630   -1.8000 c3        1 MOL     -0.227430
     85 O15         2.1470   -2.2070   -3.1020 oh        1 MOL     -0.639477
     86 H35         0.8780   -3.5760    0.4840 hn        1 MOL      0.088184
     87 H36        -0.0010   -3.4570   -2.2340 h1        1 MOL      0.016620
     88 H37         2.5850   -2.0820   -1.0760 h1        1 MOL      0.141941
     89 H38         2.9470   -1.6940   -3.2300 ho        1 MOL      0.388154
     90 H39         3.9600   -3.8510   -2.2290 hc        1 MOL      0.078301
     91 H40         3.0910   -4.4340   -0.7830 hc        1 MOL      0.078301
     92 H41         2.5350   -4.8780   -2.3720 hc        1 MOL      0.078301
     93 N9         -0.4830   -0.9900   -2.2070 n         1 MOL      0.085539
     94 C29        -1.0960    0.3730   -2.1710 c3        1 MOL     -0.217724
     95 C30        -2.4610    0.2100   -1.3060 c         1 MOL      0.522856
     96 O16        -2.9140    1.0910   -0.6120 o         1 MOL     -0.516583
     97 C31        -1.3710    0.8160   -3.5700 c3        1 MOL      0.257613
     98 C32        -0.1310    0.5970   -4.5000 c3        1 MOL      0.094397
     99 C33        -1.8960    2.2630   -3.5220 c3        1 MOL     -0.304994
    100 C34         1.1490    1.2660   -4.0410 c3        1 MOL     -0.270870
    101 H42        -0.5710   -1.4100   -3.1220 hn        1 MOL      0.161984
    102 H43        -0.3950    1.0390   -1.6680 h1        1 MOL      0.126126
    103 H44        -2.1440    0.2040   -4.0330 hc        1 MOL     -0.056259
    104 H45        -0.3760    1.0480   -5.4580 hc        1 MOL     -0.008763
    105 H46        -0.0440   -0.4520   -4.7780 hc        1 MOL     -0.008763
    106 H47        -2.1430    2.4790   -4.5620 hc        1 MOL      0.080308
    107 H48        -2.7320    2.4190   -2.8490 hc        1 MOL      0.080308
    108 H49        -1.0510    2.8210   -3.1090 hc        1 MOL      0.080308
    109 H50         1.8380    1.0980   -4.8660 hc        1 MOL      0.055643
    110 H51         1.0380    2.3490   -3.9020 hc        1 MOL      0.055643
    111 H52         1.4180    0.8470   -3.0720 hc        1 MOL      0.055643
    112 N10        -3.0150   -0.9740   -1.4020 n         1 MOL     -0.247781
    113 C35        -4.1970   -1.3590   -0.6960 c3        1 MOL     -0.109557
    114 C36        -5.3300   -1.9190   -1.5830 c         1 MOL      0.655394
    115 O17        -4.9630   -2.4660   -2.6140 o         1 MOL     -0.537548
    116 C37        -3.9250   -2.4220    0.4470 c3        1 MOL      0.369503
    117 C38        -3.1050   -3.5960   -0.0460 c3        1 MOL     -0.450990
    118 O18        -3.1240   -1.7880    1.3600 oh        1 MOL     -0.563720
    119 H53        -2.5290   -1.6440   -1.9830 hn        1 MOL      0.142685
    120 H54        -4.5450   -0.5560   -0.0430 h1        1 MOL      0.101972
    121 H55        -4.8850   -2.7310    0.8450 h1        1 MOL     -0.036152
    122 H56        -3.0690   -2.3930    2.1060 ho        1 MOL      0.379744
    123 H57        -3.6310   -4.2140   -0.7760 hc        1 MOL      0.115527
    124 H58        -2.2010   -3.1800   -0.4930 hc        1 MOL      0.115527
    125 H59        -2.7790   -4.1560    0.8330 hc        1 MOL      0.115527
    126 N11        -6.6080   -1.7360   -1.2940 n         1 MOL     -0.651556
    127 C39        -7.8190   -2.0000   -2.0480 c3        1 MOL      0.175052
    128 C40        -8.6980   -0.8080   -2.2860 c         1 MOL      0.673989
    129 O19        -8.8440   -0.4410   -3.4340 o         1 MOL     -0.556119
    130 C41        -8.4770   -3.2190   -1.4150 c3        1 MOL      0.249647
    131 C42        -9.8970   -3.4280   -2.0310 c3        1 MOL     -0.321249
    132 O20        -8.7730   -2.9920   -0.0760 oh        1 MOL     -0.597167
    133 H60        -6.8030   -1.2270   -0.4410 hn        1 MOL      0.298775
    134 H61        -7.5080   -2.2560   -3.0570 h1        1 MOL      0.051669
    135 H62        -7.8250   -4.0830   -1.5760 h1        1 MOL      0.043543
    136 H63        -8.8470   -3.8690    0.3160 ho        1 MOL      0.401507
    137 H64        -9.7900   -3.3900   -3.1200 hc        1 MOL      0.071078
    138 H65       -10.2290   -4.3980   -1.6830 hc        1 MOL      0.071078
    139 H66       -10.5690   -2.6390   -1.6700 hc        1 MOL      0.071078
    140 N12        -9.1330   -0.1850   -1.1740 n         1 MOL     -0.492327
    141 C43       -10.0010    1.0060   -1.0920 c3        1 MOL     -0.027944
    142 C44        -9.6920    1.8040    0.2280 c         1 MOL      0.685826
    143 O21        -9.2140    1.3130    1.2680 o         1 MOL     -0.541286
    144 C45       -11.5020    0.4950   -0.9920 c3        1 MOL     -0.276358
    145 C46       -11.7920   -0.2840    0.2790 c3        1 MOL      0.008762
    146 C47       -13.0320   -1.1490    0.0790 c3        1 MOL      0.010550
    147 C48       -13.6610   -1.6120    1.4390 c3        1 MOL      0.093809
    148 N13       -14.8170   -2.5650    1.1790 n4        1 MOL     -0.263210
    149 H67        -8.8670   -0.6750   -0.3360 hn        1 MOL      0.261915
    150 H68        -9.8500    1.7190   -1.9050 h1        1 MOL      0.113889
    151 H69       -11.7630   -0.1710   -1.8100 hc        1 MOL      0.106064
    152 H70       -12.0930    1.4050   -1.0590 hc        1 MOL      0.106064
    153 H71       -11.8900    0.4530    1.0740 hc        1 MOL      0.033323
    154 H72       -10.9820   -0.9860    0.4900 hc        1 MOL      0.033323
    155 H73       -12.7490   -2.0550   -0.4570 hc        1 MOL      0.016534
    156 H74       -13.7800   -0.5640   -0.4630 hc        1 MOL      0.016534
    157 H75       -13.8900   -0.7990    2.1340 hx        1 MOL      0.063090
    158 H76       -12.9220   -2.1900    2.0010 hx        1 MOL      0.063090
    159 H77       -15.0880   -2.9880    2.0620 hn        1 MOL      0.229226
    160 H78       -15.5620   -2.1440    0.6450 hn        1 MOL      0.229226
    161 H79       -14.5880   -3.3920    0.6540 hn        1 MOL      0.229226
    162 N14        -9.8350    3.1270    0.1880 n         1 MOL     -0.625921
    163 C49        -9.3820    3.9810    1.3210 c3        1 MOL      0.280147
    164 C50        -7.8270    3.9690    1.6360 c         1 MOL      0.358479
    165 O22        -7.4680    3.6680    2.7670 o         1 MOL     -0.514701
    166 C51        -9.9450    5.4100    1.2280 c3        1 MOL      0.012544
    167 C52        -9.4310    6.3950    2.2620 c3        1 MOL     -0.234474
    168 C53       -10.3490    7.6020    2.1830 c         1 MOL      0.781031
    169 O23       -10.4410    8.1900    1.1280 o         1 MOL     -0.669965
    170 O24       -10.9180    8.0140    3.2020 o         1 MOL     -0.669965
    171 H80       -10.2420    3.5470   -0.6320 hn        1 MOL      0.301987
    172 H81        -9.8830    3.6180    2.2320 h1        1 MOL      0.028766
    173 H82       -11.0290    5.4500    1.2570 hc        1 MOL      0.000208
    174 H83        -9.7740    5.7480    0.2020 hc        1 MOL      0.000208
    175 H84        -8.3830    6.6220    2.0940 hc        1 MOL      0.041686
    176 H85        -9.6220    5.9470    3.2460 hc        1 MOL      0.041686
    177 N15        -6.9490    4.3990    0.7180 n         1 MOL     -0.239971
    178 C54        -7.1640    4.6720   -0.6820 c3        1 MOL     -0.120984
    179 H86        -6.3860    5.3440   -1.0440 h1        1 MOL      0.068642
    180 H87        -7.1290    3.7390   -1.2440 h1        1 MOL      0.068642
    181 H88        -8.1390    5.1410   -0.8150 h1        1 MOL      0.068642
    182 H89        -6.0360    4.5810    1.0990 hn        1 MOL      0.260047
    183 Ca1         6.2770    4.4820    0.2520 Ca        1 MOL      1.749121
    184 O25         6.2110    6.2130    2.3430 oh        1 MOL     -0.898729
    185 H90         7.0930    6.4710    2.6140 ho        1 MOL      0.435850
    186 H91         5.6400    6.8370    2.7830 ho        1 MOL      0.435850
    187 O26         3.9380    5.7500    0.6410 oh        1 MOL     -0.898729
    188 H92         3.6600    6.6600    0.6760 ho        1 MOL      0.435850
    189 H93         3.3390    5.2900    1.2310 ho        1 MOL      0.435850
    190 O27         4.8030    2.9020   -1.4360 oh        1 MOL     -0.898729
    191 H94         4.8610    2.5100   -2.3090 ho        1 MOL      0.435850
    192 H95         3.8680    2.9410   -1.2450 ho        1 MOL      0.435850
@<TRIPOS>BOND
     1    1    2 1   
     2    1    4 1   
     3    1    5 1   
     4    1    6 1   
     5    2    3 2   
     6    2    7 1   
     7    7    8 1   
     8    7   15 1   
     9    8    9 1   
    10    8   11 1   
    11    8   16 1   
    12    9   10 2   
    13    9   19 1   
    14   11   12 1   
    15   11   17 1   
    16   11   18 1   
    17   12   13 1   
    18   12   14 1   
    19   19   20 1   
    20   19   28 1   
    21   20   21 1   
    22   20   23 1   
    23   20   29 1   
    24   21   22 2   
    25   21   41 1   
    26   23   24 1   
    27   23   30 1   
    28   23   31 1   
    29   24   25 1   
    30   24   32 1   
    31   24   33 1   
    32   25   26 1   
    33   25   34 1   
    34   25   35 1   
    35   26   27 1   
    36   26   36 1   
    37   26   37 1   
    38   27   38 1   
    39   27   39 1   
    40   27   40 1   
    41   41   42 1   
    42   41   49 1   
    43   42   43 1   
    44   42   45 1   
    45   42   50 1   
    46   43   44 2   
    47   43   53 1   
    48   45   46 1   
    49   45   51 1   
    50   45   52 1   
    51   46   47 1   
    52   46   48 1   
    53   53   54 1   
    54   53   57 1   
    55   54   55 1   
    56   54   58 1   
    57   54   59 1   
    58   55   56 2   
    59   55   60 1   
    60   60   61 1   
    61   60   68 1   
    62   61   62 1   
    63   61   64 1   
    64   61   69 1   
    65   62   63 2   
    66   62   72 1   
    67   64   65 1   
    68   64   70 1   
    69   64   71 1   
    70   65   66 1   
    71   65   67 1   
    72   72   73 1   
    73   72   76 1   
    74   73   74 1   
    75   73   77 1   
    76   73   78 1   
    77   74   75 2   
    78   74   79 1   
    79   79   80 1   
    80   79   86 1   
    81   80   81 1   
    82   80   83 1   
    83   80   87 1   
    84   81   82 2   
    85   81   93 1   
    86   83   84 1   
    87   83   85 1   
    88   83   88 1   
    89   84   90 1   
    90   84   91 1   
    91   84   92 1   
    92   85   89 1   
    93   93   94 1   
    94   93  101 1   
    95   94   95 1   
    96   94   97 1   
    97   94  102 1   
    98   95   96 2   
    99   95  112 1   
   100   97   98 1   
   101   97   99 1   
   102   97  103 1   
   103   98  100 1   
   104   98  104 1   
   105   98  105 1   
   106   99  106 1   
   107   99  107 1   
   108   99  108 1   
   109  100  109 1   
   110  100  110 1   
   111  100  111 1   
   112  112  113 1   
   113  112  119 1   
   114  113  114 1   
   115  113  116 1   
   116  113  120 1   
   117  114  115 2   
   118  114  126 1   
   119  116  117 1   
   120  116  118 1   
   121  116  121 1   
   122  117  123 1   
   123  117  124 1   
   124  117  125 1   
   125  118  122 1   
   126  126  127 1   
   127  126  133 1   
   128  127  128 1   
   129  127  130 1   
   130  127  134 1   
   131  128  129 2   
   132  128  140 1   
   133  130  131 1   
   134  130  132 1   
   135  130  135 1   
   136  131  137 1   
   137  131  138 1   
   138  131  139 1   
   139  132  136 1   
   140  140  141 1   
   141  140  149 1   
   142  141  142 1   
   143  141  144 1   
   144  141  150 1   
   145  142  143 2   
   146  142  162 1   
   147  144  145 1   
   148  144  151 1   
   149  144  152 1   
   150  145  146 1   
   151  145  153 1   
   152  145  154 1   
   153  146  147 1   
   154  146  155 1   
   155  146  156 1   
   156  147  148 1   
   157  147  157 1   
   158  147  158 1   
   159  148  159 1   
   160  148  160 1   
   161  148  161 1   
   162  162  163 1   
   163  162  171 1   
   164  163  164 1   
   165  163  166 1   
   166  163  172 1   
   167  164  165 2   
   168  164  177 1   
   169  166  167 1   
   170  166  173 1   
   171  166  174 1   
   172  167  168 1   
   173  167  175 1   
   174  167  176 1   
   175  168  169 1   
   176  168  170 1   
   177  177  178 1   
   178  177  182 1   
   179  178  179 1   
   180  178  180 1   
   181  178  181 1   
   182  184  185 1   
   183  184  186 1   
   184  187  188 1   
   185  187  189 1   
   186  190  191 1   
   187  190  192 1   
@<TRIPOS>SUBSTRUCTURE
     1 MOL         1 TEMP              0 ****  ****    0 ROOT
