@<TRIPOS>MOLECULE
MOL
  189   185     1     0     0
SMALL
resp


@<TRIPOS>ATOM
      1 C1          5.3760    3.6030   -3.4520 c3        1 MOL     -0.398079
      2 C2          5.9520    2.7330   -2.2770 c         1 MOL      0.795057
      3 O1          5.4120    2.6500   -1.2020 o         1 MOL     -0.567000
      4 H1          6.0740    4.4070   -3.6850 hc        1 MOL      0.091163
      5 H2          5.2370    2.9780   -4.3340 hc        1 MOL      0.091163
      6 H3          4.4180    4.0300   -3.1540 hc        1 MOL      0.091163
      7 N1          7.0790    2.0700   -2.5530 n         1 MOL     -0.788484
      8 C3          7.5940    0.8740   -1.7220 c3        1 MOL      0.484155
      9 C4          6.4490   -0.1340   -1.4020 c         1 MOL     -0.130530
     10 O2          6.0120   -0.2130   -0.2440 o         1 MOL      0.083892
     11 C5          8.5000    1.3480   -0.6220 c3        1 MOL     -0.133309
     12 C6          8.1580    2.4610    0.3550 c         1 MOL      0.785963
     13 O3          7.0680    2.5190    0.8700 o         1 MOL     -0.750719
     14 O4          9.0710    3.2500    0.6480 o         1 MOL     -0.750719
     15 H4          7.5610    2.2030   -3.4320 hn        1 MOL      0.331693
     16 H5          8.2180    0.3470   -2.4480 h1        1 MOL     -0.016338
     17 H6          9.3380    1.7380   -1.1980 hc        1 MOL     -0.024353
     18 H7          8.8890    0.4390   -0.1610 hc        1 MOL     -0.024353
     19 N2          6.0510   -0.8020   -2.5140 n         1 MOL     -0.236971
     20 C7          5.0050   -1.8410   -2.5790 c3        1 MOL      0.099721
     21 C8          5.2180   -3.0580   -1.7980 c         1 MOL      0.308801
     22 O5          5.4030   -4.1330   -2.3610 o         1 MOL     -0.574360
     23 C9          3.6250   -1.2930   -2.3730 c3        1 MOL      0.174373
     24 C10         2.4440   -2.2810   -2.5260 c3        1 MOL      0.001594
     25 C11         3.2780    0.0150   -3.1560 c3        1 MOL     -0.278507
     26 C12         2.4090   -3.0730   -3.8850 c3        1 MOL     -0.124102
     27 H8          6.6030   -0.5790   -3.3290 hn        1 MOL      0.246467
     28 H9          5.1040   -2.0830   -3.6350 h1        1 MOL      0.049634
     29 H10         3.5690   -0.9390   -1.3420 hc        1 MOL     -0.225700
     30 H11         1.4600   -1.8030   -2.4100 hc        1 MOL      0.051931
     31 H12         2.5790   -2.9530   -1.6890 hc        1 MOL      0.051931
     32 H13         2.2150    0.2610   -3.1720 hc        1 MOL      0.038374
     33 H14         3.7930    0.9040   -2.7900 hc        1 MOL      0.038374
     34 H15         3.6230   -0.2090   -4.1630 hc        1 MOL      0.038374
     35 H16         3.3230   -3.6370   -4.0840 hc        1 MOL      0.013081
     36 H17         1.5580   -3.7420   -3.8890 hc        1 MOL      0.013081
     37 H18         2.3270   -2.4270   -4.7650 hc        1 MOL      0.013081
     38 N3          5.4640   -2.9890   -0.5430 n         1 MOL      0.178097
     39 C13         6.2070   -4.0350    0.1710 c3        1 MOL      0.068397
     40 C14         5.2730   -5.1930    0.6080 c         1 MOL      0.489194
     41 O6          5.5970   -6.3390    0.2320 o         1 MOL     -0.576426
     42 C15         6.9150   -3.3840    1.3490 c3        1 MOL     -0.183948
     43 C16         7.9590   -2.4090    0.9520 c         1 MOL      0.653225
     44 O7          8.5490   -2.5430   -0.1390 o         1 MOL     -0.677451
     45 O8          8.1000   -1.4440    1.7720 o         1 MOL     -0.677451
     46 H19         5.4220   -2.0550   -0.1550 hn        1 MOL     -0.117151
     47 H20         6.9120   -4.5340   -0.4980 h1        1 MOL      0.054194
     48 H21         7.3190   -4.1710    1.9860 hc        1 MOL      0.041242
     49 H22         6.2630   -2.8080    2.0090 hc        1 MOL      0.041242
     50 N4          4.2160   -5.0500    1.4270 n         1 MOL     -0.517419
     51 C17         3.5470   -3.8460    1.8430 c3        1 MOL      0.126575
     52 C18         2.4250   -4.0110    2.8730 c         1 MOL      0.598941
     53 O9          2.1840   -5.0840    3.3980 o         1 MOL     -0.580348
     54 H23         3.8050   -5.9040    1.7640 hn        1 MOL      0.285249
     55 H24         3.1150   -3.4880    0.9090 h1        1 MOL      0.045744
     56 H25         4.2770   -3.1760    2.3070 h1        1 MOL      0.045744
     57 N5          1.6440   -2.9610    3.0850 n         1 MOL     -0.544284
     58 C19         1.8580   -1.5060    2.8690 c3        1 MOL      0.075159
     59 C20         2.2090   -1.1460    1.4100 c         1 MOL      0.062673
     60 O10         3.3470   -0.8190    1.1070 o         1 MOL     -0.431176
     61 C21         2.9520   -1.0510    3.8800 c3        1 MOL     -0.065681
     62 C22         3.3190    0.4450    3.9250 c         1 MOL      0.576175
     63 O11         2.8630    1.2880    3.0410 o         1 MOL     -0.633252
     64 O12         4.0800    0.8530    4.7910 o         1 MOL     -0.633252
     65 H26         0.8120   -3.2030    3.6190 hn        1 MOL      0.300696
     66 H27         0.9780   -0.9610    3.1870 h1        1 MOL      0.113975
     67 H28         3.8280   -1.6140    3.5290 hc        1 MOL      0.043297
     68 H29         2.7200   -1.4720    4.8500 hc        1 MOL      0.043297
     69 N6          1.3000   -1.1420    0.3700 n         1 MOL     -0.040337
     70 C23        -0.1520   -1.2350    0.5140 c3        1 MOL     -0.101632
     71 C24        -0.7870   -2.6130    0.0040 c         1 MOL      0.421364
     72 O13        -0.2570   -3.2620   -0.8800 o         1 MOL     -0.515063
     73 H30         1.6940   -0.7620   -0.4800 hn        1 MOL      0.268979
     74 H31        -0.6820   -0.4250    0.0280 h1        1 MOL      0.074084
     75 H32        -0.4300   -1.0740    1.5560 h1        1 MOL      0.074084
     76 N7         -1.9590   -2.9540    0.5170 n         1 MOL     -0.349100
     77 C25        -2.7270   -4.1150   -0.0300 c3        1 MOL      0.064773
     78 C26        -3.4060   -3.8780   -1.3980 c         1 MOL      0.318944
     79 O14        -4.0880   -4.6780   -1.9890 o         1 MOL     -0.468847
     80 C27        -3.8020   -4.5770    0.9940 c3        1 MOL      0.030229
     81 C28        -3.8300   -6.1020    0.8440 c3        1 MOL     -0.181632
     82 C29        -4.9090   -6.7670    1.7220 c         1 MOL      0.736149
     83 N8         -5.4250   -7.9050    1.2340 n         1 MOL     -0.847786
     84 O15        -5.4080   -6.3200    2.6930 o         1 MOL     -0.556165
     85 H33        -2.3280   -2.4470    1.3070 hn        1 MOL      0.246711
     86 H34        -1.9830   -4.9070   -0.0400 h1        1 MOL      0.120194
     87 H35        -4.7790   -4.2020    0.6740 hc        1 MOL      0.007413
     88 H36        -3.5040   -4.3030    2.0040 hc        1 MOL      0.007413
     89 H37        -2.8480   -6.3710    1.2380 hc        1 MOL      0.047207
     90 H38        -3.9390   -6.4320   -0.1880 hc        1 MOL      0.047207
     91 H39        -5.1890   -8.4070    0.3910 hn        1 MOL      0.348559
     92 H40        -6.1670   -8.4190    1.7060 hn        1 MOL      0.348559
     93 N9         -3.2370   -2.6740   -1.9190 n         1 MOL     -0.095249
     94 C30        -3.7550   -2.1980   -3.2240 c3        1 MOL     -0.054469
     95 C31        -5.1590   -1.6270   -3.2180 c         1 MOL      0.286250
     96 O16        -5.7070   -1.3760   -4.2780 o         1 MOL     -0.525850
     97 C32        -2.7520   -1.2100   -3.9220 c3        1 MOL      0.323942
     98 C33        -1.2690   -1.7400   -4.0420 c3        1 MOL     -0.393403
     99 C34        -2.6520    0.0760   -3.1240 c3        1 MOL     -0.393403
    100 H41        -2.7240   -1.9150   -1.4890 hn        1 MOL      0.053494
    101 H42        -3.9230   -3.0230   -3.9150 h1        1 MOL      0.081457
    102 H43        -3.1070   -1.0160   -4.9350 hc        1 MOL     -0.010493
    103 H44        -0.7730   -1.6760   -3.0740 hc        1 MOL      0.099692
    104 H45        -1.3570   -2.7840   -4.3660 hc        1 MOL      0.099692
    105 H46        -0.6750   -1.1310   -4.7280 hc        1 MOL      0.099692
    106 H47        -2.4190   -0.1230   -2.0750 hc        1 MOL      0.099692
    107 H48        -1.8240    0.6530   -3.5360 hc        1 MOL      0.099692
    108 H49        -3.6090    0.5910   -3.2350 hc        1 MOL      0.099692
    109 N10        -5.7540   -1.3200   -2.0950 n         1 MOL      0.030825
    110 C35        -7.0980   -0.7770   -1.8890 c3        1 MOL      0.000688
    111 C36        -7.0550    0.7270   -1.4990 c         1 MOL      0.446083
    112 O17        -8.1300    1.4100   -1.5920 o         1 MOL     -0.546395
    113 C37        -7.7850   -1.6610   -0.8780 c3        1 MOL     -0.171532
    114 C38        -7.9720   -3.1330   -1.2570 c         1 MOL      0.532986
    115 N11        -8.4130   -3.4010   -2.4510 n         1 MOL     -0.737579
    116 O18        -7.9440   -4.0200   -0.4200 o         1 MOL     -0.493356
    117 H50        -5.4070   -1.7510   -1.2430 hn        1 MOL      0.137943
    118 H51        -7.5770   -0.8970   -2.8540 h1        1 MOL      0.040809
    119 H52        -8.7360   -1.1700   -0.6790 hc        1 MOL      0.095238
    120 H53        -7.1460   -1.6850    0.0120 hc        1 MOL      0.095238
    121 H54        -8.7480   -2.6890   -3.0760 hn        1 MOL      0.357834
    122 H55        -8.4920   -4.3810   -2.7060 hn        1 MOL      0.357834
    123 N12        -5.9660    1.1060   -0.8600 n         1 MOL     -0.379837
    124 C39        -5.8180    2.2580    0.0130 c3        1 MOL      0.276614
    125 C40        -4.4330    2.9160   -0.0110 c         1 MOL      0.396721
    126 O19        -3.3570    2.3330   -0.1480 o         1 MOL     -0.454984
    127 C41        -6.0750    1.8670    1.4800 c3        1 MOL      0.009339
    128 C42        -7.4990    1.4750    1.7590 ca        1 MOL     -0.047411
    129 C43        -7.8030    0.1010    1.9630 ca        1 MOL     -0.028496
    130 C44        -8.4960    2.3920    1.8890 ca        1 MOL     -0.028496
    131 C45        -9.1160   -0.2790    2.3160 ca        1 MOL     -0.366948
    132 C46        -9.7700    2.0150    2.3540 ca        1 MOL     -0.366948
    133 C47       -10.1070    0.6910    2.6040 ca        1 MOL      0.417661
    134 O20       -11.2620    0.3310    3.0550 oh        1 MOL     -0.446905
    135 H56        -5.1930    0.4580   -0.9220 hn        1 MOL      0.168506
    136 H57        -6.6030    3.0010   -0.1250 h1        1 MOL      0.010905
    137 H58        -5.8350    2.6340    2.2270 hc        1 MOL      0.018452
    138 H59        -5.3460    1.0810    1.7030 hc        1 MOL      0.018452
    139 H60        -6.9770   -0.5780    2.0700 ha        1 MOL      0.100824
    140 H61        -8.3590    3.4610    1.7530 ha        1 MOL      0.100824
    141 H62        -9.4180   -1.3090    2.4620 ha        1 MOL      0.146635
    142 H63       -10.5450    2.7390    2.5570 ha        1 MOL      0.146635
    143 H64       -11.7210    1.1660    3.1580 ho        1 MOL      0.331314
    144 N13        -4.4620    4.2390    0.3040 n         1 MOL     -0.785860
    145 C48        -3.3890    5.0460    0.8850 c3        1 MOL      0.434462
    146 C49        -2.1180    5.3350    0.0250 c         1 MOL      0.314601
    147 O21        -1.5050    6.3580    0.1680 o         1 MOL     -0.555355
    148 C50        -3.0680    4.3960    2.2740 c3        1 MOL     -0.179002
    149 C51        -2.3040    5.4290    3.1670 c3        1 MOL     -0.443091
    150 C52        -2.0370    4.9390    4.6250 c         1 MOL      0.760470
    151 O22        -2.6280    3.8750    5.0020 o         1 MOL     -0.738150
    152 O23        -1.2920    5.5520    5.3750 o         1 MOL     -0.738150
    153 H65        -5.3340    4.7570    0.2160 hn        1 MOL      0.354979
    154 H66        -3.8250    6.0200    1.0870 h1        1 MOL     -0.018024
    155 H67        -2.3600    3.5750    2.1280 hc        1 MOL      0.116764
    156 H68        -4.0090    4.0250    2.6980 hc        1 MOL      0.116764
    157 H69        -2.7380    6.4190    3.0690 hc        1 MOL      0.128557
    158 H70        -1.2860    5.4600    2.7630 hc        1 MOL      0.128557
    159 N14        -1.6800    4.4580   -0.8490 n         1 MOL     -0.246504
    160 C53        -0.4630    4.7190   -1.7340 c3        1 MOL     -0.176577
    161 C54        -0.7480    5.7950   -2.8570 c         1 MOL      0.480903
    162 O24         0.0180    5.8360   -3.8210 o         1 MOL     -0.527932
    163 C55         0.0340    3.3750   -2.4340 c3        1 MOL      0.044492
    164 C56         0.4170    2.2040   -1.5320 c3        1 MOL      0.391530
    165 C57         1.5720    2.4650   -0.4830 c         1 MOL      0.557846
    166 O25         1.4450    3.4750    0.1740 o         1 MOL     -0.658029
    167 O26         2.5480    1.7400   -0.3380 o         1 MOL     -0.658029
    168 H71        -2.2630    3.6360   -0.9770 hn        1 MOL      0.197235
    169 H72         0.3370    5.0860   -1.0940 h1        1 MOL      0.206109
    170 H73         0.8730    3.6660   -3.0730 hc        1 MOL     -0.026608
    171 H74        -0.7380    3.0300   -3.1210 hc        1 MOL     -0.026608
    172 H75         0.6680    1.3490   -2.1670 hc        1 MOL     -0.105147
    173 H76        -0.4490    1.9160   -0.9350 hc        1 MOL     -0.105147
    174 N15        -1.8080    6.5980   -2.7530 n         1 MOL     -0.243949
    175 C58        -2.1830    7.5930   -3.7870 c3        1 MOL     -0.158720
    176 H77        -1.3190    8.2140   -4.0240 h1        1 MOL      0.074537
    177 H78        -2.5140    7.0750   -4.6870 h1        1 MOL      0.074537
    178 H79        -2.9900    8.2210   -3.4110 h1        1 MOL      0.074537
    179 H80        -2.2860    6.6350   -1.8630 hn        1 MOL      0.231610
    180 Ca1         4.6220    1.6890    1.1390 Ca        1 MOL      1.636928
    181 O27         3.9500    4.2780    0.7390 oh        1 MOL     -0.809288
    182 H81         3.0230    4.0810    0.6210 ho        1 MOL      0.379551
    183 H82         4.0640    5.1450    0.3670 ho        1 MOL      0.379551
    184 O28         5.1140    2.9440    3.4450 oh        1 MOL     -0.809288
    185 H83         4.6810    2.3170    4.0110 ho        1 MOL      0.379551
    186 H84         4.6600    3.7780    3.6180 ho        1 MOL      0.379551
    187 O29         6.3750    0.3230    2.6150 oh        1 MOL     -0.809288
    188 H85         7.0680    0.7990    3.0640 ho        1 MOL      0.379551
    189 H86         6.8230   -0.3490    2.1080 ho        1 MOL      0.379551
@<TRIPOS>BOND
     1    1    2 1   
     2    1    4 1   
     3    1    5 1   
     4    1    6 1   
     5    2    3 2   
     6    2    7 1   
     7    7    8 1   
     8    7   15 1   
     9    8    9 1   
    10    8   11 1   
    11    8   16 1   
    12    9   10 2   
    13    9   19 1   
    14   11   12 1   
    15   11   17 1   
    16   11   18 1   
    17   12   13 1   
    18   12   14 1   
    19   19   20 1   
    20   19   27 1   
    21   20   21 1   
    22   20   23 1   
    23   20   28 1   
    24   21   22 2   
    25   21   38 1   
    26   23   24 1   
    27   23   25 1   
    28   23   29 1   
    29   24   26 1   
    30   24   30 1   
    31   24   31 1   
    32   25   32 1   
    33   25   33 1   
    34   25   34 1   
    35   26   35 1   
    36   26   36 1   
    37   26   37 1   
    38   38   39 1   
    39   38   46 1   
    40   39   40 1   
    41   39   42 1   
    42   39   47 1   
    43   40   41 2   
    44   40   50 1   
    45   42   43 1   
    46   42   48 1   
    47   42   49 1   
    48   43   44 1   
    49   43   45 1   
    50   50   51 1   
    51   50   54 1   
    52   51   52 1   
    53   51   55 1   
    54   51   56 1   
    55   52   53 2   
    56   52   57 1   
    57   57   58 1   
    58   57   65 1   
    59   58   59 1   
    60   58   61 1   
    61   58   66 1   
    62   59   60 2   
    63   59   69 1   
    64   61   62 1   
    65   61   67 1   
    66   61   68 1   
    67   62   63 1   
    68   62   64 1   
    69   69   70 1   
    70   69   73 1   
    71   70   71 1   
    72   70   74 1   
    73   70   75 1   
    74   71   72 2   
    75   71   76 1   
    76   76   77 1   
    77   76   85 1   
    78   77   78 1   
    79   77   80 1   
    80   77   86 1   
    81   78   79 2   
    82   78   93 1   
    83   80   81 1   
    84   80   87 1   
    85   80   88 1   
    86   81   82 1   
    87   81   89 1   
    88   81   90 1   
    89   82   83 1   
    90   82   84 2   
    91   83   91 1   
    92   83   92 1   
    93   93   94 1   
    94   93  100 1   
    95   94   95 1   
    96   94   97 1   
    97   94  101 1   
    98   95   96 2   
    99   95  109 1   
   100   97   98 1   
   101   97   99 1   
   102   97  102 1   
   103   98  103 1   
   104   98  104 1   
   105   98  105 1   
   106   99  106 1   
   107   99  107 1   
   108   99  108 1   
   109  109  110 1   
   110  109  117 1   
   111  110  111 1   
   112  110  113 1   
   113  110  118 1   
   114  111  112 2   
   115  111  123 1   
   116  113  114 1   
   117  113  119 1   
   118  113  120 1   
   119  114  115 1   
   120  114  116 2   
   121  115  121 1   
   122  115  122 1   
   123  123  124 1   
   124  123  135 1   
   125  124  125 1   
   126  124  127 1   
   127  124  136 1   
   128  125  126 2   
   129  125  144 1   
   130  127  128 1   
   131  127  137 1   
   132  127  138 1   
   133  128  129 ar  
   134  128  130 ar  
   135  129  131 ar  
   136  129  139 1   
   137  130  132 ar  
   138  130  140 1   
   139  131  133 ar  
   140  131  141 1   
   141  132  133 ar  
   142  132  142 1   
   143  133  134 1   
   144  134  143 1   
   145  144  145 1   
   146  144  153 1   
   147  145  146 1   
   148  145  148 1   
   149  145  154 1   
   150  146  147 2   
   151  146  159 1   
   152  148  149 1   
   153  148  155 1   
   154  148  156 1   
   155  149  150 1   
   156  149  157 1   
   157  149  158 1   
   158  150  151 1   
   159  150  152 1   
   160  159  160 1   
   161  159  168 1   
   162  160  161 1   
   163  160  163 1   
   164  160  169 1   
   165  161  162 2   
   166  161  174 1   
   167  163  164 1   
   168  163  170 1   
   169  163  171 1   
   170  164  165 1   
   171  164  172 1   
   172  164  173 1   
   173  165  166 1   
   174  165  167 1   
   175  174  175 1   
   176  174  179 1   
   177  175  176 1   
   178  175  177 1   
   179  175  178 1   
   180  181  182 1   
   181  181  183 1   
   182  184  185 1   
   183  184  186 1   
   184  187  188 1   
   185  187  189 1   
@<TRIPOS>SUBSTRUCTURE
     1 MOL         1 TEMP              0 ****  ****    0 ROOT
