@<TRIPOS>MOLECULE
MOL
  192   187     1     0     0
SMALL
resp


@<TRIPOS>ATOM
      1 C1         11.6480    5.5800   -2.7640 c3        1 MOL     -0.368281
      2 C2         11.4770    4.3420   -1.9540 c         1 MOL      0.649640
      3 O1         12.2280    3.3930   -2.1210 o         1 MOL     -0.609578
      4 H1         12.4090    5.4130   -3.5260 hc        1 MOL      0.095669
      5 H2         10.7030    5.8330   -3.2450 hc        1 MOL      0.095669
      6 H3         11.9570    6.3990   -2.1160 hc        1 MOL      0.095669
      7 N1         10.5410    4.3830   -1.0270 n         1 MOL     -0.198277
      8 C3         10.2600    3.3000   -0.0730 c3        1 MOL     -0.305285
      9 C4          9.0610    2.4930   -0.5400 c         1 MOL      0.506284
     10 O2          7.9950    3.0660   -0.9210 o         1 MOL     -0.686192
     11 C5         10.1720    3.8150    1.3540 c3        1 MOL     -0.006951
     12 C6          9.1630    4.9930    1.5080 c         1 MOL      0.739466
     13 O3          8.5340    5.4280    0.5210 o         1 MOL     -0.714117
     14 O4          9.0580    5.5520    2.6390 o         1 MOL     -0.714117
     15 H4          9.9880    5.2340   -0.9980 hn        1 MOL      0.112251
     16 H5         11.1400    2.6540   -0.0610 h1        1 MOL      0.144742
     17 H6         11.1740    4.1460    1.6460 hc        1 MOL      0.053392
     18 H7          9.8680    2.9700    1.9740 hc        1 MOL      0.053392
     19 N2          9.1430    1.1810   -0.5040 n         1 MOL     -0.294389
     20 C7          8.0120    0.3500   -0.8260 c3        1 MOL      0.165204
     21 C8          7.0470    0.1170    0.3170 c         1 MOL      0.515970
     22 O5          7.5470   -0.2890    1.3760 o         1 MOL     -0.525937
     23 C9          8.4400   -0.9610   -1.4850 c3        1 MOL     -0.180005
     24 C10         7.3170   -1.5640   -2.3600 c3        1 MOL      0.210376
     25 C11         7.5180   -3.0850   -2.4770 c3        1 MOL     -0.194600
     26 C12         6.5390   -3.7780   -3.4340 c3        1 MOL      0.104400
     27 N3          6.6100   -3.3000   -4.8520 n4        1 MOL     -0.338695
     28 H8         10.0690    0.8200   -0.3070 hn        1 MOL      0.265995
     29 H9          7.4320    0.7880   -1.6440 h1        1 MOL      0.024765
     30 H10         8.7230   -1.6340   -0.6740 hc        1 MOL      0.053688
     31 H11         9.3390   -0.6920   -2.0480 hc        1 MOL      0.053688
     32 H12         7.3840   -1.2000   -3.3840 hc        1 MOL     -0.087496
     33 H13         6.3100   -1.3970   -1.9910 hc        1 MOL     -0.087496
     34 H14         7.3000   -3.4580   -1.4730 hc        1 MOL      0.090253
     35 H15         8.5070   -3.4610   -2.6920 hc        1 MOL      0.090253
     36 H16         5.5100   -3.7120   -3.0640 hx        1 MOL      0.077013
     37 H17         6.8130   -4.8360   -3.4410 hx        1 MOL      0.077013
     38 H18         6.1040   -3.8800   -5.5120 hn        1 MOL      0.283498
     39 H19         6.3660   -2.3200   -4.8910 hn        1 MOL      0.283498
     40 H20         7.5710   -3.3830   -5.1510 hn        1 MOL      0.283498
     41 N4          5.7400    0.3480    0.1180 n         1 MOL     -0.215605
     42 C13         4.8060    0.2580    1.1900 c3        1 MOL      0.119830
     43 C14         3.3620    0.1230    0.6750 c         1 MOL      0.230863
     44 O6          2.9890    0.6280   -0.3510 o         1 MOL     -0.475937
     45 C15         4.9840    1.4030    2.2460 c3        1 MOL     -0.193722
     46 C16         5.2100    2.8000    1.7600 c         1 MOL      0.681434
     47 O7          6.3890    3.1550    1.6040 o         1 MOL     -0.696015
     48 O8          4.2280    3.6100    1.5200 o         1 MOL     -0.696015
     49 H21         5.4400    0.6690   -0.7960 hn        1 MOL      0.164507
     50 H22         5.1260   -0.6840    1.6280 h1        1 MOL      0.016314
     51 H23         5.9010    1.1650    2.7880 hc        1 MOL      0.079195
     52 H24         4.1290    1.3890    2.9260 hc        1 MOL      0.079195
     53 N5          2.4330   -0.4290    1.4450 n         1 MOL     -0.109764
     54 C17         2.7180   -1.1070    2.7120 c3        1 MOL     -0.339714
     55 C18         3.1220   -2.5460    2.5310 c         1 MOL      0.818049
     56 O9          3.9630   -2.8860    1.6830 o         1 MOL     -0.584252
     57 H25         1.5040   -0.1740    1.1440 hn        1 MOL      0.260250
     58 H26         1.7830   -1.0850    3.2640 h1        1 MOL      0.117952
     59 H27         3.4890   -0.6770    3.3490 h1        1 MOL      0.117952
     60 N6          2.5400   -3.3670    3.3950 n         1 MOL     -0.549053
     61 C19         3.0020   -4.7240    3.5530 c3        1 MOL      0.040678
     62 C20         2.3640   -5.7270    2.6120 c         1 MOL      0.644583
     63 O10         1.2220   -6.1070    2.8490 o         1 MOL     -0.558565
     64 C21         2.9860   -5.1860    5.0400 c3        1 MOL     -0.133114
     65 C22         3.8320   -6.4940    5.2290 c         1 MOL      0.699058
     66 O11         3.7250   -6.9690    6.3620 o         1 MOL     -0.667914
     67 O12         4.5200   -6.9480    4.2570 o         1 MOL     -0.667914
     68 H28         1.7790   -3.0410    3.9860 hn        1 MOL      0.294572
     69 H29         4.0380   -4.7510    3.1950 h1        1 MOL     -0.002606
     70 H30         2.0000   -5.5160    5.3740 hc        1 MOL      0.043839
     71 H31         3.3830   -4.4050    5.7030 hc        1 MOL      0.043839
     72 N7          3.0610   -6.1780    1.5670 n         1 MOL     -0.453696
     73 C23         2.5440   -7.0480    0.4990 c3        1 MOL      0.035379
     74 C24         1.8890   -6.3250   -0.6760 c         1 MOL      0.407981
     75 O13         1.5400   -6.9870   -1.6530 o         1 MOL     -0.557495
     76 H32         3.8760   -5.6200    1.3710 hn        1 MOL      0.284325
     77 H33         1.8600   -7.8230    0.8350 h1        1 MOL      0.080706
     78 H34         3.3850   -7.6100    0.0800 h1        1 MOL      0.080706
     79 N8          1.7490   -5.0240   -0.5590 n         1 MOL     -0.023343
     80 C25         1.1770   -4.1410   -1.5510 c3        1 MOL     -0.076672
     81 C26         0.5580   -2.8650   -0.8730 c         1 MOL      0.443385
     82 O14         0.7620   -2.5950    0.2960 o         1 MOL     -0.454540
     83 C27         2.2960   -3.6010   -2.4700 c3        1 MOL      0.210312
     84 C28         3.3440   -2.7870   -1.6350 c3        1 MOL     -0.314826
     85 O15         2.8560   -4.6950   -3.1820 oh        1 MOL     -0.646738
     86 H35         1.9930   -4.6290    0.3280 hn        1 MOL      0.039618
     87 H36         0.4330   -4.5790   -2.2210 h1        1 MOL      0.069177
     88 H37         1.8520   -2.9540   -3.2250 h1        1 MOL      0.004600
     89 H38         2.1940   -5.0250   -3.7860 ho        1 MOL      0.423469
     90 H39         2.9320   -1.8780   -1.2100 hc        1 MOL      0.115384
     91 H40         3.8520   -3.3880   -0.8900 hc        1 MOL      0.115384
     92 H41         4.1650   -2.5790   -2.3300 hc        1 MOL      0.115384
     93 N9         -0.2900   -2.1030   -1.5890 n         1 MOL     -0.394454
     94 C29        -0.7600   -0.7060   -1.2940 c3        1 MOL     -0.156407
     95 C30        -2.0850   -0.6390   -0.5680 c         1 MOL      0.583772
     96 O16        -2.2240    0.3000    0.2690 o         1 MOL     -0.543641
     97 C31        -0.6580    0.1340   -2.5710 c3        1 MOL      0.149926
     98 C32         0.7980   -0.0200   -3.1340 c3        1 MOL     -0.105932
     99 C33        -1.0350    1.5820   -2.3220 c3        1 MOL     -0.293403
    100 C34         0.7570    0.1800   -4.6590 c3        1 MOL     -0.160215
    101 H42        -0.5740   -2.5030   -2.4690 hn        1 MOL      0.262372
    102 H43        -0.0440   -0.2820   -0.5970 h1        1 MOL      0.116982
    103 H44        -1.4110   -0.1530   -3.3070 hc        1 MOL      0.019118
    104 H45         1.4750   -0.7900   -2.7610 hc        1 MOL      0.044007
    105 H46         1.2510    0.9080   -2.7840 hc        1 MOL      0.044007
    106 H47        -2.0740    1.5660   -1.9900 hc        1 MOL      0.094647
    107 H48        -0.3800    1.9940   -1.5610 hc        1 MOL      0.094647
    108 H49        -1.1090    2.2090   -3.2130 hc        1 MOL      0.094647
    109 H50         0.1480   -0.5700   -5.1590 hc        1 MOL      0.040056
    110 H51         0.3910    1.1940   -4.8680 hc        1 MOL      0.040056
    111 H52         1.7440    0.1700   -5.0990 hc        1 MOL      0.040056
    112 N10        -3.0270   -1.5680   -0.7320 n         1 MOL     -0.342584
    113 C35        -4.3760   -1.5120   -0.1420 c3        1 MOL     -0.258597
    114 C36        -5.4430   -1.9980   -1.1540 c         1 MOL      0.685233
    115 O17        -5.0520   -2.8460   -1.9800 o         1 MOL     -0.569294
    116 C37        -4.5120   -2.3900    1.1840 c3        1 MOL      0.551908
    117 C38        -4.0030   -3.8190    0.8780 c3        1 MOL     -0.432664
    118 O18        -3.8130   -1.9890    2.3170 oh        1 MOL     -0.681632
    119 H53        -2.9100   -2.2230   -1.4870 hn        1 MOL      0.244765
    120 H54        -4.5860   -0.4780    0.1580 h1        1 MOL      0.111321
    121 H55        -5.5760   -2.4640    1.3670 h1        1 MOL     -0.001062
    122 H56        -2.8590   -2.0740    2.2460 ho        1 MOL      0.449935
    123 H57        -4.0010   -4.4730    1.7420 hc        1 MOL      0.105563
    124 H58        -4.7300   -4.2410    0.1900 hc        1 MOL      0.105563
    125 H59        -3.0010   -3.7230    0.4530 hc        1 MOL      0.105563
    126 N11        -6.6770   -1.5400   -1.0470 n         1 MOL     -0.561883
    127 C39        -7.8370   -2.0150   -1.9350 c3        1 MOL     -0.083042
    128 C40        -9.0870   -1.0380   -1.9710 c         1 MOL      0.604773
    129 O19        -9.6420   -0.8340   -3.0570 o         1 MOL     -0.556505
    130 C41        -8.1480   -3.4400   -1.5420 c3        1 MOL      0.277606
    131 C42        -9.2820   -4.1480   -2.3070 c3        1 MOL     -0.372261
    132 O20        -8.3930   -3.5330   -0.1770 oh        1 MOL     -0.579760
    133 H60        -6.7940   -0.9370   -0.2420 hn        1 MOL      0.320426
    134 H61        -7.4780   -2.0610   -2.9690 h1        1 MOL      0.121035
    135 H62        -7.2590   -4.0680   -1.6070 h1        1 MOL      0.100910
    136 H63        -9.3460   -3.5860   -0.1020 ho        1 MOL      0.366269
    137 H64        -9.2880   -5.1930   -1.9990 hc        1 MOL      0.101805
    138 H65       -10.2000   -3.6240   -2.0520 hc        1 MOL      0.101805
    139 H66        -9.0450   -4.0210   -3.3610 hc        1 MOL      0.101805
    140 N12        -9.4470   -0.4700   -0.8590 n         1 MOL     -0.388875
    141 C43       -10.3270    0.6640   -0.6040 c3        1 MOL      0.003859
    142 C44        -9.8460    1.5260    0.5740 c         1 MOL      0.600178
    143 O21        -9.4840    1.0990    1.6830 o         1 MOL     -0.510882
    144 C45       -11.7100    0.0580   -0.2770 c3        1 MOL     -0.316662
    145 C46       -12.9300    0.9080   -0.5580 c3        1 MOL      0.283201
    146 C47       -14.1940    0.0680   -0.2230 c3        1 MOL     -0.043831
    147 C48       -15.3420    0.7540   -0.8620 c3        1 MOL      0.010564
    148 N13       -16.4420   -0.1800   -1.0680 n4        1 MOL     -0.173782
    149 H67        -8.8910   -0.7550   -0.0680 hn        1 MOL      0.232643
    150 H68       -10.4170    1.3010   -1.4840 h1        1 MOL      0.088321
    151 H69       -11.6440   -0.3070    0.7560 hc        1 MOL      0.094411
    152 H70       -11.8090   -0.8570   -0.8640 hc        1 MOL      0.094411
    153 H71       -13.0220    1.0820   -1.6310 hc        1 MOL     -0.043799
    154 H72       -12.8800    1.8850   -0.0770 hc        1 MOL     -0.043799
    155 H73       -14.2700    0.0390    0.8620 hc        1 MOL      0.031381
    156 H74       -14.1080   -0.9520   -0.5950 hc        1 MOL      0.031381
    157 H75       -15.0950    1.1200   -1.8620 hx        1 MOL      0.082345
    158 H76       -15.6050    1.6700   -0.3370 hx        1 MOL      0.082345
    159 H77       -17.2260    0.2010   -1.5800 hn        1 MOL      0.220957
    160 H78       -16.1420   -0.9600   -1.6280 hn        1 MOL      0.220957
    161 H79       -16.7170   -0.7350   -0.2770 hn        1 MOL      0.220957
    162 N14        -9.8920    2.8640    0.4110 n         1 MOL     -0.577449
    163 C49        -9.1730    3.7220    1.3580 c3        1 MOL      0.385853
    164 C50        -7.6600    3.6680    1.2340 c         1 MOL      0.329623
    165 O22        -6.9300    3.2710    2.1190 o         1 MOL     -0.496941
    166 C51        -9.7440    5.1260    1.1730 c3        1 MOL     -0.181409
    167 C52        -9.1290    6.0100    2.2500 c3        1 MOL     -0.116187
    168 C53        -9.8350    7.3740    2.3000 c         1 MOL      0.702347
    169 O23        -9.6390    8.0850    3.3110 o         1 MOL     -0.655371
    170 O24       -10.5750    7.6850    1.3910 o         1 MOL     -0.655371
    171 H80       -10.3130    3.2660   -0.4230 hn        1 MOL      0.276499
    172 H81        -9.3250    3.4110    2.3860 h1        1 MOL      0.028225
    173 H82       -10.8310    5.0290    1.2620 hc        1 MOL      0.053335
    174 H83        -9.4820    5.5560    0.1990 hc        1 MOL      0.053335
    175 H84        -8.1020    6.1620    1.9360 hc        1 MOL      0.034087
    176 H85        -9.0430    5.5700    3.2460 hc        1 MOL      0.034087
    177 N15        -6.9970    4.0090    0.0890 n         1 MOL     -0.307715
    178 C54        -7.4970    4.4310   -1.2600 c3        1 MOL     -0.195172
    179 H86        -6.6510    4.5730   -1.9320 h1        1 MOL      0.089705
    180 H87        -8.1550    3.6600   -1.6620 h1        1 MOL      0.089705
    181 H88        -8.0480    5.3680   -1.1680 h1        1 MOL      0.089705
    182 H89        -6.0170    3.7690    0.0970 hn        1 MOL      0.274539
    183 Ca1         6.1730    4.8530   -0.3420 Ca        1 MOL      1.769550
    184 O25         4.9230    2.8250   -1.5080 oh        1 MOL     -0.862921
    185 H90         5.0900    2.1440   -2.1540 ho        1 MOL      0.420994
    186 H91         3.9920    2.7510   -1.3150 ho        1 MOL      0.420994
    187 O26         3.5760    5.7800   -0.8350 oh        1 MOL     -0.862921
    188 H92         2.7570    5.5850   -0.3780 ho        1 MOL      0.420994
    189 H93         3.7450    6.7040   -0.6460 ho        1 MOL      0.420994
    190 O27         5.6150    6.3860    1.6760 oh        1 MOL     -0.862921
    191 H94         6.2420    7.0060    2.0340 ho        1 MOL      0.420994
    192 H95         5.0090    6.2150    2.3970 ho        1 MOL      0.420994
@<TRIPOS>BOND
     1    1    2 1   
     2    1    4 1   
     3    1    5 1   
     4    1    6 1   
     5    2    3 2   
     6    2    7 1   
     7    7    8 1   
     8    7   15 1   
     9    8    9 1   
    10    8   11 1   
    11    8   16 1   
    12    9   10 2   
    13    9   19 1   
    14   11   12 1   
    15   11   17 1   
    16   11   18 1   
    17   12   13 1   
    18   12   14 1   
    19   19   20 1   
    20   19   28 1   
    21   20   21 1   
    22   20   23 1   
    23   20   29 1   
    24   21   22 2   
    25   21   41 1   
    26   23   24 1   
    27   23   30 1   
    28   23   31 1   
    29   24   25 1   
    30   24   32 1   
    31   24   33 1   
    32   25   26 1   
    33   25   34 1   
    34   25   35 1   
    35   26   27 1   
    36   26   36 1   
    37   26   37 1   
    38   27   38 1   
    39   27   39 1   
    40   27   40 1   
    41   41   42 1   
    42   41   49 1   
    43   42   43 1   
    44   42   45 1   
    45   42   50 1   
    46   43   44 2   
    47   43   53 1   
    48   45   46 1   
    49   45   51 1   
    50   45   52 1   
    51   46   47 1   
    52   46   48 1   
    53   53   54 1   
    54   53   57 1   
    55   54   55 1   
    56   54   58 1   
    57   54   59 1   
    58   55   56 2   
    59   55   60 1   
    60   60   61 1   
    61   60   68 1   
    62   61   62 1   
    63   61   64 1   
    64   61   69 1   
    65   62   63 2   
    66   62   72 1   
    67   64   65 1   
    68   64   70 1   
    69   64   71 1   
    70   65   66 1   
    71   65   67 1   
    72   72   73 1   
    73   72   76 1   
    74   73   74 1   
    75   73   77 1   
    76   73   78 1   
    77   74   75 2   
    78   74   79 1   
    79   79   80 1   
    80   79   86 1   
    81   80   81 1   
    82   80   83 1   
    83   80   87 1   
    84   81   82 2   
    85   81   93 1   
    86   83   84 1   
    87   83   85 1   
    88   83   88 1   
    89   84   90 1   
    90   84   91 1   
    91   84   92 1   
    92   85   89 1   
    93   93   94 1   
    94   93  101 1   
    95   94   95 1   
    96   94   97 1   
    97   94  102 1   
    98   95   96 2   
    99   95  112 1   
   100   97   98 1   
   101   97   99 1   
   102   97  103 1   
   103   98  100 1   
   104   98  104 1   
   105   98  105 1   
   106   99  106 1   
   107   99  107 1   
   108   99  108 1   
   109  100  109 1   
   110  100  110 1   
   111  100  111 1   
   112  112  113 1   
   113  112  119 1   
   114  113  114 1   
   115  113  116 1   
   116  113  120 1   
   117  114  115 2   
   118  114  126 1   
   119  116  117 1   
   120  116  118 1   
   121  116  121 1   
   122  117  123 1   
   123  117  124 1   
   124  117  125 1   
   125  118  122 1   
   126  126  127 1   
   127  126  133 1   
   128  127  128 1   
   129  127  130 1   
   130  127  134 1   
   131  128  129 2   
   132  128  140 1   
   133  130  131 1   
   134  130  132 1   
   135  130  135 1   
   136  131  137 1   
   137  131  138 1   
   138  131  139 1   
   139  132  136 1   
   140  140  141 1   
   141  140  149 1   
   142  141  142 1   
   143  141  144 1   
   144  141  150 1   
   145  142  143 2   
   146  142  162 1   
   147  144  145 1   
   148  144  151 1   
   149  144  152 1   
   150  145  146 1   
   151  145  153 1   
   152  145  154 1   
   153  146  147 1   
   154  146  155 1   
   155  146  156 1   
   156  147  148 1   
   157  147  157 1   
   158  147  158 1   
   159  148  159 1   
   160  148  160 1   
   161  148  161 1   
   162  162  163 1   
   163  162  171 1   
   164  163  164 1   
   165  163  166 1   
   166  163  172 1   
   167  164  165 2   
   168  164  177 1   
   169  166  167 1   
   170  166  173 1   
   171  166  174 1   
   172  167  168 1   
   173  167  175 1   
   174  167  176 1   
   175  168  169 1   
   176  168  170 1   
   177  177  178 1   
   178  177  182 1   
   179  178  179 1   
   180  178  180 1   
   181  178  181 1   
   182  184  185 1   
   183  184  186 1   
   184  187  188 1   
   185  187  189 1   
   186  190  191 1   
   187  190  192 1   
@<TRIPOS>SUBSTRUCTURE
     1 MOL         1 TEMP              0 ****  ****    0 ROOT
