@<TRIPOS>MOLECULE
MOL
  198   191     1     0     0
SMALL
resp


@<TRIPOS>ATOM
      1 C1         -6.8930    3.8440    1.0130 c3        1 MOL     -0.345515
      2 C2         -5.7970    2.9730    0.4360 c         1 MOL      0.692486
      3 O1         -6.0310    2.1910   -0.4900 o         1 MOL     -0.594097
      4 H1         -6.9250    4.7910    0.4750 hc        1 MOL      0.092382
      5 H2         -7.8520    3.3360    0.9140 hc        1 MOL      0.092382
      6 H3         -6.6890    4.0330    2.0680 hc        1 MOL      0.092382
      7 N1         -4.5050    3.2260    0.6150 n         1 MOL     -0.282998
      8 C3         -3.8920    4.2440    1.4190 c3        1 MOL     -0.082132
      9 C4         -3.4360    5.4120    0.5760 c         1 MOL      0.397096
     10 O2         -3.5310    6.5580    0.9430 o         1 MOL     -0.545667
     11 C5         -2.5940    3.6590    2.0770 c3        1 MOL     -0.149150
     12 C6         -2.7550    2.3360    2.8240 c         1 MOL      0.657258
     13 O3         -2.9630    2.3190    4.0490 o         1 MOL     -0.716938
     14 O4         -2.6130    1.2200    2.3020 o         1 MOL     -0.716938
     15 H4         -3.9090    2.6140    0.0770 hn        1 MOL      0.168884
     16 H5         -4.6970    4.5140    2.1060 h1        1 MOL      0.086047
     17 H6         -2.2530    4.3160    2.8780 hc        1 MOL      0.062658
     18 H7         -1.8090    3.5300    1.3360 hc        1 MOL      0.062658
     19 N2         -3.2330    5.1320   -0.6770 n         1 MOL     -0.028931
     20 C7         -2.9850    6.1820   -1.7150 c3        1 MOL     -0.262040
     21 C8         -1.5730    6.5830   -1.7050 c         1 MOL      0.455942
     22 O5         -1.2850    7.7570   -2.0220 o         1 MOL     -0.552420
     23 C9         -3.3960    5.7510   -3.2240 c3        1 MOL      0.208177
     24 C10        -2.5290    4.4790   -3.5830 c3        1 MOL      0.012989
     25 C11        -4.8860    5.4540   -3.2140 c3        1 MOL     -0.134177
     26 C12        -1.7670    4.7460   -4.8730 c3        1 MOL     -0.260025
     27 H8         -3.4750    4.2000   -0.9860 hn        1 MOL      0.158543
     28 H9         -3.5210    7.1020   -1.5080 h1        1 MOL      0.119839
     29 H10        -3.1810    6.5300   -3.9550 hc        1 MOL     -0.004254
     30 H11        -3.1280    3.5820   -3.7490 hc        1 MOL      0.019723
     31 H12        -1.7540    4.2520   -2.8480 hc        1 MOL      0.019723
     32 H13        -5.1850    4.7910   -2.4030 hc        1 MOL      0.014715
     33 H14        -5.3220    6.4430   -3.0480 hc        1 MOL      0.014715
     34 H15        -5.2340    5.1100   -4.1900 hc        1 MOL      0.014715
     35 H16        -1.1600    3.9080   -5.1870 hc        1 MOL      0.053333
     36 H17        -2.3720    4.8540   -5.7740 hc        1 MOL      0.053333
     37 H18        -1.0690    5.5700   -4.7000 hc        1 MOL      0.053333
     38 N3         -0.6340    5.7010   -1.2790 n         1 MOL      0.052263
     39 C13         0.7500    6.0690   -1.0670 c3        1 MOL     -0.048773
     40 C14         1.2610    5.3460    0.2260 c         1 MOL      0.481381
     41 O6          0.7670    4.3210    0.5730 o         1 MOL     -0.471495
     42 C15         1.5560    5.8110   -2.3110 c3        1 MOL     -0.411392
     43 C16         2.9310    6.4090   -2.2110 c         1 MOL      0.842432
     44 O7          3.1070    7.6530   -2.1980 o         1 MOL     -0.744620
     45 O8          3.9510    5.7650   -2.1650 o         1 MOL     -0.744620
     46 H19        -0.8880    4.7900   -0.9310 hn        1 MOL      0.014375
     47 H20         0.8360    7.1230   -0.8090 h1        1 MOL      0.011814
     48 H21         1.0120    6.2430   -3.1510 hc        1 MOL      0.094255
     49 H22         1.6810    4.7410   -2.4970 hc        1 MOL      0.094255
     50 N4          2.4470    5.8300    0.7080 n         1 MOL     -0.393531
     51 C17         3.2550    5.1410    1.6690 c3        1 MOL     -0.105579
     52 C18         3.9050    3.8980    1.1430 c         1 MOL      0.901488
     53 O9          3.2790    3.0820    0.5450 o         1 MOL     -0.678946
     54 H23         2.8770    6.5940    0.2160 hn        1 MOL      0.306850
     55 H24         2.7030    4.7660    2.5280 h1        1 MOL      0.049106
     56 H25         4.0100    5.8300    2.0350 h1        1 MOL      0.049106
     57 N5          5.1830    3.7880    1.5280 n         1 MOL     -0.654788
     58 C19         6.0910    2.7290    1.1020 c3        1 MOL      0.363440
     59 C20         6.8060    2.8490   -0.2260 c         1 MOL      0.562643
     60 O10         7.1970    3.9570   -0.5870 o         1 MOL     -0.540017
     61 C21         7.1920    2.6290    2.1780 c3        1 MOL     -0.602346
     62 C22         6.7840    2.1660    3.5510 c         1 MOL      0.808122
     63 O11         6.9740    2.9500    4.4930 o         1 MOL     -0.743077
     64 O12         6.1750    1.1300    3.8420 o         1 MOL     -0.743077
     65 H26         5.5520    4.4390    2.2100 hn        1 MOL      0.315842
     66 H27         5.5160    1.7980    1.1350 h1        1 MOL      0.011685
     67 H28         7.7230    3.5670    2.3050 hc        1 MOL      0.113689
     68 H29         7.8660    1.8470    1.8320 hc        1 MOL      0.113689
     69 N6          6.9700    1.7530   -0.9220 n         1 MOL     -0.588342
     70 C23         6.5770    0.3370   -0.5840 c3        1 MOL      0.341730
     71 C24         7.0410   -0.7970   -1.5780 c         1 MOL      0.412752
     72 O13         7.5400   -0.5410   -2.6510 o         1 MOL     -0.525324
     73 H30         7.5930    1.8670   -1.7170 hn        1 MOL      0.291591
     74 H31         5.5040    0.2430   -0.4720 h1        1 MOL     -0.015374
     75 H32         6.8840    0.1440    0.4530 h1        1 MOL     -0.015374
     76 N7          7.0170   -2.1100   -1.2430 n         1 MOL     -0.382315
     77 C25         6.8070   -2.7090    0.0390 c3        1 MOL      0.263693
     78 C26         5.4380   -2.2690    0.4750 c         1 MOL      0.149588
     79 O14         5.1970   -1.7420    1.5750 o         1 MOL     -0.453026
     80 C27         8.0140   -2.5570    0.9870 c3        1 MOL     -0.107220
     81 C28         9.0830   -3.6130    0.6990 c3        1 MOL     -0.296332
     82 C29         8.6040   -5.0150    0.9640 c         1 MOL      0.777813
     83 N8          9.4580   -6.0020    0.9020 n         1 MOL     -0.827209
     84 O15         7.4500   -5.3100    1.2180 o         1 MOL     -0.544749
     85 H33         7.3190   -2.7690   -1.9500 hn        1 MOL      0.252077
     86 H34         6.6570   -3.7580   -0.2170 h1        1 MOL      0.024199
     87 H35         7.6680   -2.6800    2.0110 hc        1 MOL      0.076841
     88 H36         8.3800   -1.5480    0.7660 hc        1 MOL      0.076841
     89 H37         9.9780   -3.3410    1.2620 hc        1 MOL      0.063386
     90 H38         9.2120   -3.5600   -0.3800 hc        1 MOL      0.063386
     91 H39        10.4030   -5.7880    0.6110 hn        1 MOL      0.349735
     92 H40         9.2600   -6.9870    0.9740 hn        1 MOL      0.349735
     93 N9          4.4000   -2.4170   -0.3560 n         1 MOL     -0.069357
     94 C30         3.0940   -1.8810   -0.0890 c3        1 MOL     -0.141160
     95 C31         2.4810   -1.1680   -1.2930 c         1 MOL      0.439911
     96 O16         2.7350   -1.6400   -2.3790 o         1 MOL     -0.533318
     97 C32         2.1770   -3.0240    0.3910 c3        1 MOL      0.280817
     98 C33         2.5130   -3.4790    1.8040 c3        1 MOL     -0.389073
     99 C34         2.1560   -4.1980   -0.5800 c3        1 MOL     -0.389073
    100 H41         4.6460   -2.8190   -1.2480 hn        1 MOL      0.135719
    101 H42         3.1580   -1.1150    0.6800 h1        1 MOL      0.144027
    102 H43         1.1360   -2.6770    0.4440 hc        1 MOL      0.019560
    103 H44         3.4330   -4.0770    1.7650 hc        1 MOL      0.098915
    104 H45         2.5660   -2.5640    2.3930 hc        1 MOL      0.098915
    105 H46         1.7120   -4.1210    2.1760 hc        1 MOL      0.098915
    106 H47         1.5110   -4.9570   -0.1320 hc        1 MOL      0.098915
    107 H48         1.6420   -3.9630   -1.5220 hc        1 MOL      0.098915
    108 H49         3.1660   -4.5740   -0.7280 hc        1 MOL      0.098915
    109 N10         1.5830   -0.1750   -1.1910 n         1 MOL     -0.206283
    110 C35         0.9050    0.4430   -2.3150 c3        1 MOL     -0.150264
    111 C36        -0.2530   -0.3710   -2.9240 c         1 MOL      0.585254
    112 O17        -0.9080    0.1370   -3.7720 o         1 MOL     -0.543594
    113 C37         0.4790    1.8470   -1.8150 c3        1 MOL     -0.294730
    114 C38        -0.6430    1.8720   -0.8790 c         1 MOL      0.667394
    115 N11        -0.4850    1.5240    0.4070 n         1 MOL     -0.791079
    116 O18        -1.7050    2.2430   -1.2260 o         1 MOL     -0.533746
    117 H50         1.3540    0.1800   -0.2730 hn        1 MOL      0.138906
    118 H51         1.6420    0.6080   -3.1020 h1        1 MOL      0.149052
    119 H52         0.1160    2.4190   -2.6650 hc        1 MOL      0.155462
    120 H53         1.3250    2.3630   -1.3760 hc        1 MOL      0.155462
    121 H54         0.4680    1.5310    0.7440 hn        1 MOL      0.393621
    122 H55        -1.3110    1.4180    0.9730 hn        1 MOL      0.393621
    123 N12        -0.5240   -1.5990   -2.4830 n         1 MOL     -0.185746
    124 C39        -1.6040   -2.4600   -3.0110 c3        1 MOL      0.004398
    125 C40        -2.1700   -3.4160   -1.8860 c         1 MOL      0.733805
    126 O19        -1.5010   -3.9000   -1.0470 o         1 MOL     -0.446953
    127 C41        -1.2450   -3.1450   -4.3030 c3        1 MOL      0.050123
    128 C42        -0.3160   -4.3100   -4.1540 ca        1 MOL     -0.006307
    129 C43        -0.8640   -5.5910   -3.9480 ca        1 MOL     -0.083331
    130 C44         1.0460   -4.0880   -4.1630 ca        1 MOL     -0.083331
    131 C45         0.0280   -6.6720   -3.7030 ca        1 MOL     -0.345733
    132 C46         1.9440   -5.1930   -3.8730 ca        1 MOL     -0.345733
    133 C47         1.4310   -6.4710   -3.6370 ca        1 MOL      0.365171
    134 O20         2.2320   -7.5460   -3.4160 oh        1 MOL     -0.470548
    135 H56        -0.1060   -1.8190   -1.5950 hn        1 MOL      0.040258
    136 H57        -2.3680   -1.7100   -3.2340 h1        1 MOL      0.017931
    137 H58        -0.7090   -2.4300   -4.9300 hc        1 MOL     -0.009832
    138 H59        -2.1870   -3.4900   -4.7400 hc        1 MOL     -0.009832
    139 H60        -1.9470   -5.6030   -3.9560 ha        1 MOL      0.112122
    140 H61         1.4600   -3.1080   -4.3450 ha        1 MOL      0.112122
    141 H62        -0.3130   -7.6860   -3.5350 ha        1 MOL      0.176141
    142 H63         3.0120   -5.0970   -3.7640 ha        1 MOL      0.176141
    143 H64         3.1430   -7.2460   -3.4990 ho        1 MOL      0.327637
    144 N13        -3.4840   -3.6480   -1.8620 n         1 MOL     -0.813198
    145 C48        -4.1760   -4.4530   -0.8150 c3        1 MOL      0.213765
    146 C49        -5.5180   -3.7450   -0.3370 c         1 MOL      0.437432
    147 O21        -6.6280   -4.3010   -0.4290 o         1 MOL     -0.513614
    148 C50        -4.3190   -5.8900   -1.3350 c3        1 MOL      0.092974
    149 C51        -4.8630   -6.8730   -0.3180 c3        1 MOL     -0.232371
    150 C52        -3.7700   -7.5040    0.6380 c         1 MOL      0.692308
    151 O22        -3.4610   -6.9150    1.7030 o         1 MOL     -0.710995
    152 O23        -3.1010   -8.4790    0.2970 o         1 MOL     -0.710995
    153 H65        -4.0720   -3.2470   -2.5800 hn        1 MOL      0.332849
    154 H66        -3.5380   -4.4950    0.0660 h1        1 MOL      0.022021
    155 H67        -3.4080   -6.3430   -1.7310 hc        1 MOL      0.000471
    156 H68        -5.0290   -5.8910   -2.1580 hc        1 MOL      0.000471
    157 H69        -5.3470   -7.6420   -0.9160 hc        1 MOL      0.004673
    158 H70        -5.6520   -6.3890    0.2440 hc        1 MOL      0.004673
    159 N14        -5.4250   -2.4730    0.0820 n         1 MOL     -0.155946
    160 C53        -6.5750   -1.5910    0.1500 c3        1 MOL      0.035240
    161 C54        -6.7090   -0.9340   -1.2300 c         1 MOL      0.315509
    162 O24        -7.8190   -0.7940   -1.7400 o         1 MOL     -0.542405
    163 C55        -6.4410   -0.5430    1.2840 c3        1 MOL      0.215487
    164 C56        -6.6080   -1.0160    2.7370 c3        1 MOL     -0.418521
    165 C57        -5.4420   -1.9760    3.0680 c         1 MOL      0.687474
    166 O25        -4.3240   -1.4630    3.0780 o         1 MOL     -0.690524
    167 O26        -5.6020   -3.2120    3.3030 o         1 MOL     -0.690524
    168 H71        -4.5270   -2.0480    0.2490 hn        1 MOL      0.136513
    169 H72        -7.4570   -2.1750    0.4020 h1        1 MOL      0.074043
    170 H73        -7.1730    0.2500    1.0730 hc        1 MOL     -0.045590
    171 H74        -5.4450   -0.1030    1.2190 hc        1 MOL     -0.045590
    172 H75        -7.5400   -1.5520    2.9250 hc        1 MOL      0.088305
    173 H76        -6.5150   -0.0920    3.3040 hc        1 MOL      0.088305
    174 N15        -5.6300   -0.4800   -1.7920 n         1 MOL     -0.027489
    175 C58        -5.6550   -0.0770   -3.2420 c3        1 MOL     -0.535743
    176 H77        -6.0750   -0.8880   -3.8360 h1        1 MOL      0.178776
    177 H78        -6.2690    0.8160   -3.3610 h1        1 MOL      0.178776
    178 H79        -4.6410    0.1330   -3.5790 h1        1 MOL      0.178776
    179 H80        -4.7470   -0.6690   -1.3420 hn        1 MOL      0.190072
    180 Ca1        -2.1070   -0.5620    4.0420 Ca        1 MOL      1.753001
    181 O27        -3.9270    0.3120    6.0100 oh        1 MOL     -0.819264
    182 H81        -3.5910    0.6300    6.8410 ho        1 MOL      0.401479
    183 H82        -4.8750    0.3900    6.0840 ho        1 MOL      0.401479
    184 O28         0.1580    0.5980    3.4190 oh        1 MOL     -0.819264
    185 H83         0.4960    1.0820    4.1670 ho        1 MOL      0.401479
    186 H84         0.8230    0.7050    2.7390 ho        1 MOL      0.401479
    187 O29        -2.6040   -2.9870    5.4830 oh        1 MOL     -0.819264
    188 H85        -3.4440   -3.4520    5.5290 ho        1 MOL      0.401479
    189 H86        -1.9430   -3.6880    5.4450 ho        1 MOL      0.401479
    190 O30        -0.1410   -2.4300    4.3030 oh        1 MOL     -0.819264
    191 H87        -0.0690   -3.3800    4.4130 ho        1 MOL      0.401479
    192 H88         0.6900   -2.0890    4.6310 ho        1 MOL      0.401479
    193 O31        -0.9660   -0.4430    6.5730 oh        1 MOL     -0.819264
    194 H89        -0.0850   -0.2840    6.9080 ho        1 MOL      0.401479
    195 H90        -1.2010   -1.3120    6.9090 ho        1 MOL      0.401479
    196 O32        -1.8280   -2.0310    1.8050 oh        1 MOL     -0.819264
    197 H91        -2.0990   -2.9260    2.0250 ho        1 MOL      0.401479
    198 H92        -2.5200   -1.6970    1.2280 ho        1 MOL      0.401479
@<TRIPOS>BOND
     1    1    2 1   
     2    1    4 1   
     3    1    5 1   
     4    1    6 1   
     5    2    3 2   
     6    2    7 1   
     7    7    8 1   
     8    7   15 1   
     9    8    9 1   
    10    8   11 1   
    11    8   16 1   
    12    9   10 2   
    13    9   19 1   
    14   11   12 1   
    15   11   17 1   
    16   11   18 1   
    17   12   13 1   
    18   12   14 1   
    19   19   20 1   
    20   19   27 1   
    21   20   21 1   
    22   20   23 1   
    23   20   28 1   
    24   21   22 2   
    25   21   38 1   
    26   23   24 1   
    27   23   25 1   
    28   23   29 1   
    29   24   26 1   
    30   24   30 1   
    31   24   31 1   
    32   25   32 1   
    33   25   33 1   
    34   25   34 1   
    35   26   35 1   
    36   26   36 1   
    37   26   37 1   
    38   38   39 1   
    39   38   46 1   
    40   39   40 1   
    41   39   42 1   
    42   39   47 1   
    43   40   41 2   
    44   40   50 1   
    45   42   43 1   
    46   42   48 1   
    47   42   49 1   
    48   43   44 1   
    49   43   45 1   
    50   50   51 1   
    51   50   54 1   
    52   51   52 1   
    53   51   55 1   
    54   51   56 1   
    55   52   53 2   
    56   52   57 1   
    57   57   58 1   
    58   57   65 1   
    59   58   59 1   
    60   58   61 1   
    61   58   66 1   
    62   59   60 2   
    63   59   69 1   
    64   61   62 1   
    65   61   67 1   
    66   61   68 1   
    67   62   63 1   
    68   62   64 1   
    69   69   70 1   
    70   69   73 1   
    71   70   71 1   
    72   70   74 1   
    73   70   75 1   
    74   71   72 2   
    75   71   76 1   
    76   76   77 1   
    77   76   85 1   
    78   77   78 1   
    79   77   80 1   
    80   77   86 1   
    81   78   79 2   
    82   78   93 1   
    83   80   81 1   
    84   80   87 1   
    85   80   88 1   
    86   81   82 1   
    87   81   89 1   
    88   81   90 1   
    89   82   83 1   
    90   82   84 2   
    91   83   91 1   
    92   83   92 1   
    93   93   94 1   
    94   93  100 1   
    95   94   95 1   
    96   94   97 1   
    97   94  101 1   
    98   95   96 2   
    99   95  109 1   
   100   97   98 1   
   101   97   99 1   
   102   97  102 1   
   103   98  103 1   
   104   98  104 1   
   105   98  105 1   
   106   99  106 1   
   107   99  107 1   
   108   99  108 1   
   109  109  110 1   
   110  109  117 1   
   111  110  111 1   
   112  110  113 1   
   113  110  118 1   
   114  111  112 2   
   115  111  123 1   
   116  113  114 1   
   117  113  119 1   
   118  113  120 1   
   119  114  115 1   
   120  114  116 2   
   121  115  121 1   
   122  115  122 1   
   123  123  124 1   
   124  123  135 1   
   125  124  125 1   
   126  124  127 1   
   127  124  136 1   
   128  125  126 2   
   129  125  144 1   
   130  127  128 1   
   131  127  137 1   
   132  127  138 1   
   133  128  129 ar  
   134  128  130 ar  
   135  129  131 ar  
   136  129  139 1   
   137  130  132 ar  
   138  130  140 1   
   139  131  133 ar  
   140  131  141 1   
   141  132  133 ar  
   142  132  142 1   
   143  133  134 1   
   144  134  143 1   
   145  144  145 1   
   146  144  153 1   
   147  145  146 1   
   148  145  148 1   
   149  145  154 1   
   150  146  147 2   
   151  146  159 1   
   152  148  149 1   
   153  148  155 1   
   154  148  156 1   
   155  149  150 1   
   156  149  157 1   
   157  149  158 1   
   158  150  151 1   
   159  150  152 1   
   160  159  160 1   
   161  159  168 1   
   162  160  161 1   
   163  160  163 1   
   164  160  169 1   
   165  161  162 2   
   166  161  174 1   
   167  163  164 1   
   168  163  170 1   
   169  163  171 1   
   170  164  165 1   
   171  164  172 1   
   172  164  173 1   
   173  165  166 1   
   174  165  167 1   
   175  174  175 1   
   176  174  179 1   
   177  175  176 1   
   178  175  177 1   
   179  175  178 1   
   180  181  182 1   
   181  181  183 1   
   182  184  185 1   
   183  184  186 1   
   184  187  188 1   
   185  187  189 1   
   186  190  191 1   
   187  190  192 1   
   188  193  194 1   
   189  193  195 1   
   190  196  197 1   
   191  196  198 1   
@<TRIPOS>SUBSTRUCTURE
     1 MOL         1 TEMP              0 ****  ****    0 ROOT
