@<TRIPOS>MOLECULE
MOL
  189   185     1     0     0
SMALL
resp


@<TRIPOS>ATOM
      1 C1         12.0040    5.5420   -3.4220 c3        1 MOL     -0.528141
      2 C2         11.6270    4.2110   -2.6530 c         1 MOL      0.681179
      3 O1         12.0730    3.1180   -3.0360 o         1 MOL     -0.600899
      4 H1         12.3220    6.2980   -2.7040 hc        1 MOL      0.140004
      5 H2         12.8170    5.3410   -4.1210 hc        1 MOL      0.140004
      6 H3         11.1340    5.9040   -3.9700 hc        1 MOL      0.140004
      7 N1         10.9170    4.2640   -1.5190 n         1 MOL      0.064228
      8 C3         10.6800    3.2150   -0.5970 c3        1 MOL     -1.181041
      9 C4          9.4140    2.3600   -0.9130 c         1 MOL      0.682250
     10 O2          8.3130    2.8750   -1.1380 o         1 MOL     -0.552099
     11 C5         10.7670    3.6830    0.8440 c3        1 MOL      0.509013
     12 C6          9.8530    4.8580    1.2920 c         1 MOL      0.576859
     13 O3          9.2000    5.5650    0.5000 o         1 MOL     -0.686244
     14 O4          9.7800    5.0150    2.5400 o         1 MOL     -0.686244
     15 H4         10.6250    5.1730   -1.1970 hn        1 MOL      0.068324
     16 H5         11.5550    2.5800   -0.7320 h1        1 MOL      0.269390
     17 H6         11.7430    4.0040    1.1950 hc        1 MOL     -0.009784
     18 H7         10.5010    2.8240    1.4690 hc        1 MOL     -0.009784
     19 N2          9.5790    1.0100   -0.9210 n         1 MOL     -0.241422
     20 C7          8.4840    0.0630   -1.0580 c3        1 MOL     -0.335274
     21 C8          7.4480    0.2630    0.0420 c         1 MOL      0.843486
     22 O5          7.6200   -0.2900    1.1470 o         1 MOL     -0.513837
     23 C9          9.1200   -1.4070   -1.2400 c3        1 MOL     -0.258876
     24 C10         9.9940   -1.6530   -2.5290 c3        1 MOL      0.025954
     25 C11        10.3930   -3.1400   -2.6500 c3        1 MOL      0.052597
     26 C12        11.2860   -3.3750   -3.8390 c3        1 MOL     -0.081789
     27 N3         11.6510   -4.8140   -3.9550 n4        1 MOL     -0.044956
     28 H8         10.5010    0.6060   -0.8440 hn        1 MOL      0.315422
     29 H9          7.8760    0.3450   -1.9260 h1        1 MOL      0.151195
     30 H10         8.3040   -2.1330   -1.2390 hc        1 MOL      0.118259
     31 H11         9.7450   -1.5980   -0.3700 hc        1 MOL      0.118259
     32 H12        10.8800   -1.0300   -2.4530 hc        1 MOL      0.040384
     33 H13         9.4560   -1.3880   -3.4360 hc        1 MOL      0.040384
     34 H14         9.5640   -3.8230   -2.8450 hc        1 MOL      0.027161
     35 H15        10.8390   -3.5800   -1.7540 hc        1 MOL      0.027161
     36 H16        12.2470   -2.8680   -3.7050 hx        1 MOL      0.086352
     37 H17        10.8360   -3.0670   -4.7880 hx        1 MOL      0.086352
     38 H18        12.4470   -5.2500   -3.5110 hn        1 MOL      0.197988
     39 H19        10.9310   -5.3830   -3.5210 hn        1 MOL      0.197988
     40 H20        11.7530   -5.1100   -4.9160 hn        1 MOL      0.197988
     41 N4          6.2040    0.6720   -0.2610 n         1 MOL     -0.766415
     42 C13         5.0050    0.6410    0.6390 c3        1 MOL      0.428809
     43 C14         3.7570    0.3550   -0.2760 c         1 MOL      0.429426
     44 O6          3.6670    0.7750   -1.4530 o         1 MOL     -0.575320
     45 C15         4.6510    1.9670    1.4120 c3        1 MOL     -0.133527
     46 C16         5.8830    2.6580    2.0710 c         1 MOL      0.569556
     47 O7          6.3710    3.6070    1.4410 o         1 MOL     -0.593973
     48 O8          6.1810    2.3040    3.2180 o         1 MOL     -0.593973
     49 H21         6.1050    1.3120   -1.0510 hn        1 MOL      0.334501
     50 H22         5.2230   -0.1610    1.3370 h1        1 MOL      0.018797
     51 H23         3.8850    1.7070    2.1470 hc        1 MOL     -0.053264
     52 H24         4.2270    2.7080    0.7360 hc        1 MOL     -0.053264
     53 N5          2.6940   -0.0990    0.3080 n         1 MOL     -0.257258
     54 C17         2.5060   -0.6440    1.6210 c3        1 MOL     -0.331315
     55 C18         3.0750   -2.0670    1.7990 c         1 MOL      0.379739
     56 O9          3.2340   -2.8930    0.8720 o         1 MOL     -0.498193
     57 H25         1.8640   -0.0700   -0.2730 hn        1 MOL      0.275203
     58 H26         1.4370   -0.7770    1.7730 h1        1 MOL      0.187205
     59 H27         2.8970   -0.0660    2.4610 h1        1 MOL      0.187205
     60 N6          3.4390   -2.3490    3.0500 n         1 MOL     -0.077672
     61 C19         4.0560   -3.5910    3.4500 c3        1 MOL     -0.345223
     62 C20         3.0970   -4.8060    3.3090 c         1 MOL      0.457016
     63 O10         2.2740   -5.0770    4.1730 o         1 MOL     -0.476044
     64 C21         4.6020   -3.3730    4.9000 c3        1 MOL     -0.184332
     65 C22         5.4910   -4.5330    5.4470 c         1 MOL      0.774200
     66 O11         5.9810   -5.3350    4.5940 o         1 MOL     -0.638736
     67 O12         5.7780   -4.5830    6.6280 o         1 MOL     -0.638736
     68 H28         3.3520   -1.6190    3.7510 hn        1 MOL      0.250300
     69 H29         4.9290   -3.7720    2.8360 h1        1 MOL      0.138513
     70 H30         3.8110   -3.1190    5.5980 hc        1 MOL      0.073284
     71 H31         5.2070   -2.4620    4.8940 hc        1 MOL      0.073284
     72 N7          3.0150   -5.5470    2.1980 n         1 MOL     -0.201848
     73 C23         2.0750   -6.5740    1.8250 c3        1 MOL     -0.238267
     74 C24         0.9250   -6.2160    0.9380 c         1 MOL      0.565477
     75 O13        -0.0850   -6.8980    0.8790 o         1 MOL     -0.567308
     76 H32         3.7450   -5.3190    1.5430 hn        1 MOL      0.215681
     77 H33         1.6560   -6.9940    2.7490 h1        1 MOL      0.124207
     78 H34         2.7100   -7.3170    1.3440 h1        1 MOL      0.124207
     79 N8          0.9500   -5.0030    0.3620 n         1 MOL     -0.229002
     80 C25        -0.0030   -4.3500   -0.5020 c3        1 MOL     -0.138725
     81 C26        -0.6800   -3.0510    0.0630 c         1 MOL      0.682777
     82 O14         0.0090   -2.3250    0.8170 o         1 MOL     -0.530467
     83 C27         0.6330   -3.9620   -1.8180 c3        1 MOL      0.240225
     84 C28         1.8830   -3.2180   -1.9880 c3        1 MOL     -0.338082
     85 O15         0.8890   -5.1960   -2.5310 oh        1 MOL     -0.627358
     86 H35         1.7500   -4.4190    0.5710 hn        1 MOL      0.205314
     87 H36        -0.7750   -5.0970   -0.7070 h1        1 MOL      0.121323
     88 H37         0.1120   -3.2140   -2.4190 h1        1 MOL      0.039950
     89 H38         1.7870   -5.1060   -2.8840 ho        1 MOL      0.390127
     90 H39         1.8780   -2.4120   -1.2570 hc        1 MOL      0.086753
     91 H40         2.6980   -3.9110   -1.8250 hc        1 MOL      0.086753
     92 H41         1.9590   -2.8550   -3.0160 hc        1 MOL      0.086753
     93 N9         -1.9410   -2.8110   -0.3150 n         1 MOL     -0.547742
     94 C29        -2.8350   -1.7970    0.3180 c3        1 MOL     -0.123156
     95 C30        -4.3210   -2.1380    0.5050 c         1 MOL      0.727221
     96 O16        -5.0200   -1.4750    1.3080 o         1 MOL     -0.588539
     97 C31        -2.4820   -0.3930   -0.3530 c3        1 MOL      0.159418
     98 C32        -3.2140    0.8020    0.2980 c3        1 MOL     -0.018391
     99 C33        -2.6870   -0.4000   -1.9630 c3        1 MOL     -0.381101
    100 C34        -2.5250    2.1390    0.0420 c3        1 MOL     -0.231353
    101 H42        -2.3330   -3.3770   -1.0600 hn        1 MOL      0.277301
    102 H43        -2.4800   -1.7580    1.3510 h1        1 MOL      0.096720
    103 H44        -1.4310   -0.1730   -0.1950 hc        1 MOL      0.039167
    104 H45        -3.2040    0.7790    1.3830 hc        1 MOL      0.049059
    105 H46        -4.2160    0.7340   -0.1260 hc        1 MOL      0.049059
    106 H47        -2.2530    0.5070   -2.3750 hc        1 MOL      0.095917
    107 H48        -2.2910   -1.3640   -2.2810 hc        1 MOL      0.095917
    108 H49        -3.7560   -0.3450   -2.1930 hc        1 MOL      0.095917
    109 H50        -1.4400    2.1010    0.1920 hc        1 MOL      0.052707
    110 H51        -2.7490    2.3870   -0.9960 hc        1 MOL      0.052707
    111 H52        -2.9960    2.8970    0.6620 hc        1 MOL      0.052707
    112 N10        -4.8200   -3.0280   -0.2940 n         1 MOL     -0.537907
    113 C35        -6.2230   -3.3770   -0.3540 c3        1 MOL     -0.074294
    114 C36        -6.7320   -2.9470   -1.7290 c         1 MOL      0.670428
    115 O17        -6.0660   -3.0250   -2.7490 o         1 MOL     -0.541528
    116 C37        -6.4320   -4.8510   -0.0640 c3        1 MOL      0.376190
    117 C38        -6.2450   -5.1840    1.4110 c3        1 MOL     -0.341927
    118 O18        -7.7160   -5.1490   -0.4610 oh        1 MOL     -0.688079
    119 H53        -4.3130   -3.4560   -1.0630 hn        1 MOL      0.316405
    120 H54        -6.8270   -2.8150    0.3600 h1        1 MOL      0.145811
    121 H55        -5.7810   -5.4400   -0.7040 h1        1 MOL     -0.016876
    122 H56        -7.7760   -6.1020   -0.5090 ho        1 MOL      0.427784
    123 H57        -5.1850   -5.0910    1.6540 hc        1 MOL      0.101402
    124 H58        -6.8040   -4.3930    1.9070 hc        1 MOL      0.101402
    125 H59        -6.6260   -6.1740    1.6340 hc        1 MOL      0.101402
    126 N11        -7.9180   -2.3080   -1.6730 n         1 MOL     -0.639713
    127 C39        -8.5650   -1.7530   -2.8540 c3        1 MOL      0.135069
    128 C40        -8.8470   -0.2370   -2.6170 c         1 MOL      0.593177
    129 O19        -8.7510    0.5950   -3.5470 o         1 MOL     -0.573600
    130 C41        -9.8220   -2.5740   -3.0730 c3        1 MOL      0.189961
    131 C42       -10.8120   -2.1840   -4.1960 c3        1 MOL     -0.305551
    132 O20       -10.6120   -2.6760   -1.9160 oh        1 MOL     -0.638826
    133 H60        -8.5080   -2.4370   -0.8760 hn        1 MOL      0.353100
    134 H61        -7.9640   -1.8270   -3.7600 h1        1 MOL      0.085031
    135 H62        -9.4690   -3.5740   -3.3260 h1        1 MOL      0.053688
    136 H63       -11.0770   -3.5120   -2.0050 ho        1 MOL      0.421717
    137 H64       -10.3130   -2.1880   -5.1650 hc        1 MOL      0.079609
    138 H65       -11.6150   -2.9150   -4.2070 hc        1 MOL      0.079609
    139 H66       -11.1330   -1.1630   -4.0050 hc        1 MOL      0.079609
    140 N12        -9.1460    0.1530   -1.3660 n         1 MOL     -0.450315
    141 C43        -9.5760    1.5600   -0.9840 c3        1 MOL      0.174417
    142 C44        -8.7640    2.1300    0.1460 c         1 MOL      0.605076
    143 O21        -8.0040    1.3780    0.7330 o         1 MOL     -0.507975
    144 C45       -11.0850    1.6380   -0.6300 c3        1 MOL     -0.182274
    145 C46       -11.9550    1.3000   -1.8720 c3        1 MOL      0.213192
    146 C47       -13.4430    1.7050   -1.7380 c3        1 MOL     -0.270914
    147 C48       -14.1530    1.3020   -0.4090 c3        1 MOL      0.019335
    148 N13       -14.5910   -0.1170   -0.4060 n4        1 MOL     -0.189460
    149 H67        -8.9910   -0.5390   -0.6370 hn        1 MOL      0.244469
    150 H68        -9.4030    2.2450   -1.8130 h1        1 MOL      0.061396
    151 H69       -11.3290    2.6600   -0.3680 hc        1 MOL      0.050009
    152 H70       -11.2810    1.0160    0.2480 hc        1 MOL      0.050009
    153 H71       -11.9270    0.2160   -1.9680 hc        1 MOL     -0.010707
    154 H72       -11.5410    1.6700   -2.8100 hc        1 MOL     -0.010707
    155 H73       -13.9810    1.3450   -2.6130 hc        1 MOL      0.095413
    156 H74       -13.5280    2.7940   -1.7640 hc        1 MOL      0.095413
    157 H75       -15.0080    1.9770   -0.3300 hx        1 MOL      0.097737
    158 H76       -13.5140    1.5180    0.4480 hx        1 MOL      0.097737
    159 H77       -14.9620   -0.3600   -1.3160 hn        1 MOL      0.214055
    160 H78       -13.8730   -0.8250   -0.3120 hn        1 MOL      0.214055
    161 H79       -15.3790   -0.3580    0.1870 hn        1 MOL      0.214055
    162 N14        -8.8530    3.4360    0.4400 n         1 MOL     -0.721774
    163 C49        -8.2780    4.0520    1.6160 c3        1 MOL      0.419836
    164 C50        -6.7820    4.1560    1.7770 c         1 MOL      0.250031
    165 O22        -6.3400    4.0000    2.9230 o         1 MOL     -0.498325
    166 C51        -8.9350    5.4930    1.7570 c3        1 MOL     -0.197949
    167 C52        -8.5740    6.3340    2.9800 c3        1 MOL     -0.132359
    168 C53        -9.3930    7.5310    3.1190 c         1 MOL      0.729092
    169 O23       -10.3580    7.6330    3.9470 o         1 MOL     -0.660643
    170 O24        -9.0580    8.4950    2.4330 o         1 MOL     -0.660643
    171 H80        -9.3020    4.1250   -0.1540 hn        1 MOL      0.304059
    172 H81        -8.5610    3.4300    2.4670 h1        1 MOL      0.036891
    173 H82        -9.9910    5.2440    1.9230 hc        1 MOL      0.050651
    174 H83        -8.9010    6.0680    0.8360 hc        1 MOL      0.050651
    175 H84        -7.5500    6.7080    2.8920 hc        1 MOL      0.040826
    176 H85        -8.6120    5.7230    3.8820 hc        1 MOL      0.040826
    177 N15        -6.0010    4.3850    0.7260 n         1 MOL     -0.221746
    178 C54        -6.3080    4.7190   -0.7140 c3        1 MOL     -0.071514
    179 H86        -6.8310    3.8820   -1.1770 h1        1 MOL      0.064804
    180 H87        -6.9370    5.6080   -0.7560 h1        1 MOL      0.064804
    181 H88        -5.3780    4.9070   -1.2510 h1        1 MOL      0.064804
    182 H89        -5.0480    4.5610    1.0240 hn        1 MOL      0.251994
    183 Ca1         6.6640    4.9930   -0.6030 Ca        1 MOL      1.593485
    184 O25         4.9950    3.0900   -2.1390 oh        1 MOL     -0.846308
    185 H90         4.6560    3.8860   -2.5470 ho        1 MOL      0.409522
    186 H91         4.2390    2.4920   -2.1100 ho        1 MOL      0.409522
    187 O26         7.0340    4.6010   -3.3660 oh        1 MOL     -0.846308
    188 H92         6.7590    3.7250   -3.6210 ho        1 MOL      0.409522
    189 H93         7.3090    5.0180   -4.1840 ho        1 MOL      0.409522
@<TRIPOS>BOND
     1    1    2 1   
     2    1    4 1   
     3    1    5 1   
     4    1    6 1   
     5    2    3 2   
     6    2    7 1   
     7    7    8 1   
     8    7   15 1   
     9    8    9 1   
    10    8   11 1   
    11    8   16 1   
    12    9   10 2   
    13    9   19 1   
    14   11   12 1   
    15   11   17 1   
    16   11   18 1   
    17   12   13 1   
    18   12   14 1   
    19   19   20 1   
    20   19   28 1   
    21   20   21 1   
    22   20   23 1   
    23   20   29 1   
    24   21   22 2   
    25   21   41 1   
    26   23   24 1   
    27   23   30 1   
    28   23   31 1   
    29   24   25 1   
    30   24   32 1   
    31   24   33 1   
    32   25   26 1   
    33   25   34 1   
    34   25   35 1   
    35   26   27 1   
    36   26   36 1   
    37   26   37 1   
    38   27   38 1   
    39   27   39 1   
    40   27   40 1   
    41   41   42 1   
    42   41   49 1   
    43   42   43 1   
    44   42   45 1   
    45   42   50 1   
    46   43   44 2   
    47   43   53 1   
    48   45   46 1   
    49   45   51 1   
    50   45   52 1   
    51   46   47 1   
    52   46   48 1   
    53   53   54 1   
    54   53   57 1   
    55   54   55 1   
    56   54   58 1   
    57   54   59 1   
    58   55   56 2   
    59   55   60 1   
    60   60   61 1   
    61   60   68 1   
    62   61   62 1   
    63   61   64 1   
    64   61   69 1   
    65   62   63 2   
    66   62   72 1   
    67   64   65 1   
    68   64   70 1   
    69   64   71 1   
    70   65   66 1   
    71   65   67 1   
    72   72   73 1   
    73   72   76 1   
    74   73   74 1   
    75   73   77 1   
    76   73   78 1   
    77   74   75 2   
    78   74   79 1   
    79   79   80 1   
    80   79   86 1   
    81   80   81 1   
    82   80   83 1   
    83   80   87 1   
    84   81   82 2   
    85   81   93 1   
    86   83   84 1   
    87   83   85 1   
    88   83   88 1   
    89   84   90 1   
    90   84   91 1   
    91   84   92 1   
    92   85   89 1   
    93   93   94 1   
    94   93  101 1   
    95   94   95 1   
    96   94   97 1   
    97   94  102 1   
    98   95   96 2   
    99   95  112 1   
   100   97   98 1   
   101   97   99 1   
   102   97  103 1   
   103   98  100 1   
   104   98  104 1   
   105   98  105 1   
   106   99  106 1   
   107   99  107 1   
   108   99  108 1   
   109  100  109 1   
   110  100  110 1   
   111  100  111 1   
   112  112  113 1   
   113  112  119 1   
   114  113  114 1   
   115  113  116 1   
   116  113  120 1   
   117  114  115 2   
   118  114  126 1   
   119  116  117 1   
   120  116  118 1   
   121  116  121 1   
   122  117  123 1   
   123  117  124 1   
   124  117  125 1   
   125  118  122 1   
   126  126  127 1   
   127  126  133 1   
   128  127  128 1   
   129  127  130 1   
   130  127  134 1   
   131  128  129 2   
   132  128  140 1   
   133  130  131 1   
   134  130  132 1   
   135  130  135 1   
   136  131  137 1   
   137  131  138 1   
   138  131  139 1   
   139  132  136 1   
   140  140  141 1   
   141  140  149 1   
   142  141  142 1   
   143  141  144 1   
   144  141  150 1   
   145  142  143 2   
   146  142  162 1   
   147  144  145 1   
   148  144  151 1   
   149  144  152 1   
   150  145  146 1   
   151  145  153 1   
   152  145  154 1   
   153  146  147 1   
   154  146  155 1   
   155  146  156 1   
   156  147  148 1   
   157  147  157 1   
   158  147  158 1   
   159  148  159 1   
   160  148  160 1   
   161  148  161 1   
   162  162  163 1   
   163  162  171 1   
   164  163  164 1   
   165  163  166 1   
   166  163  172 1   
   167  164  165 2   
   168  164  177 1   
   169  166  167 1   
   170  166  173 1   
   171  166  174 1   
   172  167  168 1   
   173  167  175 1   
   174  167  176 1   
   175  168  169 1   
   176  168  170 1   
   177  177  178 1   
   178  177  182 1   
   179  178  179 1   
   180  178  180 1   
   181  178  181 1   
   182  184  185 1   
   183  184  186 1   
   184  187  188 1   
   185  187  189 1   
@<TRIPOS>SUBSTRUCTURE
     1 MOL         1 TEMP              0 ****  ****    0 ROOT
