@<TRIPOS>MOLECULE
MOL
  175   173     1     0     0
SMALL
resp


@<TRIPOS>ATOM
      1 C1         -6.6500    7.5780    2.2910 c3        1 MOL     -0.323163
      2 C2         -7.6340    6.9880    1.2660 c         1 MOL      0.707821
      3 O1         -7.7110    7.6020    0.2210 o         1 MOL     -0.582486
      4 H1         -5.9140    6.8220    2.5640 hc        1 MOL      0.071779
      5 H2         -6.1420    8.4370    1.8540 hc        1 MOL      0.071779
      6 H3         -7.1960    7.8910    3.1810 hc        1 MOL      0.071779
      7 N1         -8.3550    5.8990    1.5220 n         1 MOL     -0.575315
      8 C3         -9.2800    5.1750    0.6150 c3        1 MOL      0.181755
      9 C4         -8.5310    4.4380   -0.4820 c         1 MOL      0.472461
     10 O2         -9.0910    4.1740   -1.5780 o         1 MOL     -0.488100
     11 C5        -10.1990    4.3210    1.4200 c3        1 MOL     -0.209362
     12 C6        -11.1840    3.5580    0.5950 c         1 MOL      0.718684
     13 O3        -12.1390    4.1370    0.0180 o         1 MOL     -0.725071
     14 O4        -10.9450    2.3400    0.5260 o         1 MOL     -0.725071
     15 H4         -8.2260    5.3990    2.3880 hn        1 MOL      0.286763
     16 H5         -9.9160    5.8980    0.0970 h1        1 MOL      0.052921
     17 H6        -10.7910    4.9170    2.1280 hc        1 MOL      0.008890
     18 H7         -9.5210    3.7030    2.0050 hc        1 MOL      0.008890
     19 N2         -7.3040    3.9070   -0.1610 n         1 MOL     -0.371954
     20 C7         -6.4180    3.0780   -1.0420 c3        1 MOL     -0.085627
     21 C8         -5.2820    2.3740   -0.3040 c         1 MOL      0.668514
     22 O5         -4.5050    2.9680    0.4760 o         1 MOL     -0.554952
     23 C9         -5.7750    4.0960   -2.0660 c3        1 MOL     -0.242736
     24 H8         -7.0360    4.0290    0.8070 hn        1 MOL      0.236364
     25 H9         -6.9450    2.4060   -1.7080 h1        1 MOL      0.143361
     26 H10        -6.5600    4.4520   -2.7230 hc        1 MOL      0.078576
     27 H11        -5.3360    4.9630   -1.5790 hc        1 MOL      0.078576
     28 H12        -4.9770    3.6100   -2.6200 hc        1 MOL      0.078576
     29 N3         -5.1020    1.0360   -0.3960 n         1 MOL     -0.538367
     30 C10        -5.5000    0.0090   -1.3460 c3        1 MOL      0.111527
     31 C11        -5.6030   -1.3080   -0.4760 c         1 MOL      0.289217
     32 O6         -4.7730   -1.5880    0.4280 o         1 MOL     -0.430495
     33 C12        -4.5870   -0.1860   -2.5760 c3        1 MOL     -0.209653
     34 C13        -3.1330   -0.4590   -2.1310 c         1 MOL      0.841671
     35 O7         -2.6000   -1.5360   -2.4820 o         1 MOL     -0.788366
     36 O8         -2.4330    0.2150   -1.3090 o         1 MOL     -0.788366
     37 H13        -4.4130    0.7720    0.2970 hn        1 MOL      0.294886
     38 H14        -6.4880    0.2040   -1.7560 h1        1 MOL      0.044342
     39 H15        -4.5600    0.7030   -3.2120 hc        1 MOL      0.059495
     40 H16        -4.9890   -0.8870   -3.3040 hc        1 MOL      0.059495
     41 N4         -6.6450   -2.0440   -0.8180 n         1 MOL     -0.219634
     42 C14        -6.8420   -3.4280   -0.4750 c3        1 MOL     -0.000612
     43 C15        -6.6070   -4.2710   -1.6940 c         1 MOL      0.521180
     44 O9         -7.4760   -4.2860   -2.5390 o         1 MOL     -0.549417
     45 H17        -7.3240   -1.5940   -1.4070 hn        1 MOL      0.278455
     46 H18        -7.8930   -3.5110   -0.2170 h1        1 MOL      0.047211
     47 H19        -6.2430   -3.6910    0.3980 h1        1 MOL      0.047211
     48 N5         -5.4280   -4.8310   -1.9470 n         1 MOL     -0.487704
     49 C16        -4.1630   -4.5600   -1.2790 c3        1 MOL      0.037154
     50 C17        -3.9540   -5.1880    0.0990 c         1 MOL      0.529109
     51 O10        -4.0360   -6.4420    0.1210 o         1 MOL     -0.556015
     52 C18        -3.0410   -5.0260   -2.2250 c3        1 MOL     -0.005426
     53 C19        -1.6110   -4.5230   -1.8940 c         1 MOL      0.476369
     54 N6         -0.6520   -4.7590   -2.7490 n         1 MOL     -0.651030
     55 O11        -1.4630   -3.7630   -0.9770 o         1 MOL     -0.499317
     56 H20        -5.3950   -5.4360   -2.7530 hn        1 MOL      0.311554
     57 H21        -3.9780   -3.4850   -1.2040 h1        1 MOL      0.091229
     58 H22        -3.1990   -4.8220   -3.2810 hc        1 MOL      0.023272
     59 H23        -3.0340   -6.1160   -2.2140 hc        1 MOL      0.023272
     60 H24        -0.7520   -5.2560   -3.6290 hn        1 MOL      0.344216
     61 H25         0.2200   -4.3990   -2.3940 hn        1 MOL      0.344216
     62 N7         -3.7080   -4.4100    1.1560 n         1 MOL     -0.199958
     63 C20        -3.3830   -4.8650    2.4940 c3        1 MOL     -0.104167
     64 C21        -1.9180   -5.2260    2.6990 c         1 MOL      0.523035
     65 O12        -1.5920   -5.9910    3.6430 o         1 MOL     -0.579205
     66 H26        -3.7860   -3.4120    1.0380 hn        1 MOL      0.151186
     67 H27        -3.9580   -5.6920    2.9200 h1        1 MOL      0.081824
     68 H28        -3.5730   -4.0770    3.2170 h1        1 MOL      0.081824
     69 N8         -0.9770   -4.6580    1.9000 n         1 MOL     -0.305131
     70 C22         0.4320   -4.9380    1.9540 c3        1 MOL     -0.012268
     71 C23         1.3060   -3.7220    1.6430 c         1 MOL      0.368721
     72 O13         0.9760   -2.8080    0.9150 o         1 MOL     -0.449234
     73 C24         0.8510   -6.1530    1.1310 c3        1 MOL      0.598975
     74 C25         0.4130   -7.5370    1.4950 c3        1 MOL     -0.523477
     75 O14         0.6040   -6.0420   -0.2470 oh        1 MOL     -0.663156
     76 H29        -1.2810   -4.1660    1.0800 hn        1 MOL      0.166623
     77 H30         0.7110   -5.0630    3.0000 h1        1 MOL      0.034424
     78 H31         1.9390   -6.1580    1.2000 h1        1 MOL     -0.108668
     79 H32         1.1740   -5.3140   -0.4730 ho        1 MOL      0.465792
     80 H33         0.6670   -8.1900    0.6550 hc        1 MOL      0.126693
     81 H34         0.9820   -7.8220    2.3690 hc        1 MOL      0.126693
     82 H35        -0.6720   -7.6710    1.4940 hc        1 MOL      0.126693
     83 N9          2.4600   -3.6610    2.2710 n         1 MOL     -0.295022
     84 C26         3.2610   -2.3930    2.3350 c3        1 MOL      0.085945
     85 C27         4.3550   -2.4050    1.2630 c         1 MOL      0.299300
     86 O15         5.5380   -2.6770    1.5330 o         1 MOL     -0.576944
     87 C28         3.8300   -2.1680    3.7690 c3        1 MOL      0.363066
     88 C29         4.3500   -0.6830    3.9270 c3        1 MOL     -0.020305
     89 C30         2.6900   -2.5220    4.7680 c3        1 MOL     -0.391441
     90 C31         5.1860   -0.2790    5.0870 c3        1 MOL     -0.120280
     91 H36         2.7010   -4.4520    2.8480 hn        1 MOL      0.224370
     92 H37         2.6450   -1.5260    2.1420 h1        1 MOL      0.098808
     93 H38         4.6920   -2.7940    3.9780 hc        1 MOL     -0.075133
     94 H39         3.4510   -0.0650    3.9590 hc        1 MOL      0.002461
     95 H40         4.8410   -0.4260    2.9940 hc        1 MOL      0.002461
     96 H41         2.4540   -3.5830    4.7720 hc        1 MOL      0.083242
     97 H42         3.0140   -2.2750    5.7740 hc        1 MOL      0.083242
     98 H43         1.9090   -1.8530    4.4000 hc        1 MOL      0.083242
     99 H44         5.6660    0.6860    4.9390 hc        1 MOL      0.023479
    100 H45         4.6320   -0.3160    6.0210 hc        1 MOL      0.023479
    101 H46         5.9980   -1.0120    5.1430 hc        1 MOL      0.023479
    102 N10         3.9440   -2.2620   -0.0000 n         1 MOL      0.051198
    103 C32         4.7050   -2.4590   -1.2610 c3        1 MOL      0.002346
    104 C33         5.7820   -1.4160   -1.5840 c         1 MOL      0.459118
    105 O16         6.3610   -1.4710   -2.6800 o         1 MOL     -0.526569
    106 C34         3.6440   -2.4710   -2.3480 c3        1 MOL     -0.147189
    107 C35         2.2820   -3.1960   -2.2020 c         1 MOL      0.848267
    108 O17         2.2150   -4.2790   -1.5870 o         1 MOL     -0.782282
    109 O18         1.2110   -2.5590   -2.4860 o         1 MOL     -0.782282
    110 H47         2.9580   -2.0350   -0.0950 hn        1 MOL     -0.139505
    111 H48         5.0850   -3.4790   -1.1900 h1        1 MOL      0.092865
    112 H49         4.1140   -2.7450   -3.2980 hc        1 MOL      0.030464
    113 H50         3.3900   -1.4250   -2.5530 hc        1 MOL      0.030464
    114 N11         6.0820   -0.3990   -0.7320 n         1 MOL     -0.375151
    115 C36         6.9690    0.7240   -1.0190 c3        1 MOL      0.063692
    116 C37         6.4740    2.1840   -0.5840 c         1 MOL      0.531324
    117 O19         6.1000    2.3010    0.5900 o         1 MOL     -0.484983
    118 C38         8.2940    0.3660   -0.2030 c3        1 MOL     -0.432255
    119 C39         9.4650    1.2660   -0.5630 ca        1 MOL      0.233182
    120 C40         9.7260    2.5070    0.1220 ca        1 MOL     -0.202115
    121 C41        10.4790    0.7310   -1.4020 ca        1 MOL     -0.202115
    122 C42        10.7980    3.3250   -0.3460 ca        1 MOL     -0.072679
    123 C43        11.5770    1.4840   -1.8340 ca        1 MOL     -0.072679
    124 C44        11.7200    2.7950   -1.2700 ca        1 MOL     -0.208245
    125 H51         5.5490   -0.3260    0.1220 hn        1 MOL      0.311674
    126 H52         7.2670    0.5820   -2.0560 h1        1 MOL      0.110146
    127 H53         8.5870   -0.6190   -0.5540 hc        1 MOL      0.154738
    128 H54         8.1780    0.2840    0.8860 hc        1 MOL      0.154738
    129 H55         9.0530    2.8970    0.8740 ha        1 MOL      0.124861
    130 H56        10.2480   -0.1800   -1.9390 ha        1 MOL      0.124861
    131 H57        10.9190    4.3170    0.0670 ha        1 MOL      0.109345
    132 H58        12.3280    1.1280   -2.5280 ha        1 MOL      0.109345
    133 H59        12.6560    3.3200   -1.3400 ha        1 MOL      0.119644
    134 N12         6.3180    3.2230   -1.4860 n         1 MOL     -0.311592
    135 C45         6.2370    4.5970   -1.0580 c3        1 MOL      0.022598
    136 C46         4.9060    5.0790   -0.3910 c         1 MOL      0.313275
    137 O20         4.8190    6.2270    0.0190 o         1 MOL     -0.497154
    138 C47         6.5980    5.4290   -2.3230 c3        1 MOL     -0.108564
    139 C48         7.4960    4.4300   -3.0770 c3        1 MOL     -0.067017
    140 C49         6.6560    3.1500   -2.8870 c3        1 MOL     -0.081284
    141 H60         7.0450    4.8050   -0.3500 h1        1 MOL      0.100146
    142 H61         5.7460    5.6890   -2.9500 hc        1 MOL      0.077597
    143 H62         7.0850    6.3530   -2.0050 hc        1 MOL      0.077597
    144 H63         7.6280    4.7490   -4.1130 hc        1 MOL      0.046528
    145 H64         8.4130    4.2820   -2.4980 hc        1 MOL      0.046528
    146 H65         5.7370    3.3120   -3.4460 h1        1 MOL      0.087387
    147 H66         7.1170    2.2420   -3.2700 h1        1 MOL      0.087387
    148 N13         3.8870    4.2540   -0.3700 n         1 MOL     -0.154742
    149 C50         2.7250    4.4240    0.4830 c3        1 MOL     -0.250455
    150 C51         2.9270    4.5840    2.0580 c         1 MOL      0.574769
    151 O21         2.1310    5.2460    2.7180 o         1 MOL     -0.525663
    152 C52         1.8690    3.1910    0.2150 c3        1 MOL      0.029698
    153 C53         2.2920    1.9190    0.9770 c3        1 MOL      0.007380
    154 C54         1.3680    0.7310    0.5430 c         1 MOL      0.555114
    155 O22         1.9580   -0.0830   -0.2080 o         1 MOL     -0.671377
    156 O23         0.1950    0.5660    0.9780 o         1 MOL     -0.671377
    157 H67         3.9490    3.3360   -0.7760 hn        1 MOL      0.221967
    158 H68         2.2120    5.3430    0.1690 h1        1 MOL      0.134069
    159 H69         1.7770    3.0120   -0.8590 hc        1 MOL      0.024433
    160 H70         0.8500    3.3940    0.5690 hc        1 MOL      0.024433
    161 H71         2.1960    1.9630    2.0660 hc        1 MOL     -0.027275
    162 H72         3.3270    1.6610    0.7590 hc        1 MOL     -0.027275
    163 N14         4.0690    4.0690    2.6110 n         1 MOL     -0.218782
    164 C55         4.4700    4.3950    4.0460 c3        1 MOL     -0.213282
    165 H73         5.4830    4.0390    4.2300 h1        1 MOL      0.099157
    166 H74         4.4310    5.4730    4.1980 h1        1 MOL      0.099157
    167 H75         3.7830    3.9050    4.7360 h1        1 MOL      0.099157
    168 H76         4.7500    3.6300    2.0040 hn        1 MOL      0.204860
    169 Ca1        -0.3620   -1.2160   -0.9060 Ca        1 MOL      1.780377
    170 O24        -1.9920   -1.5210    1.2130 oh        1 MOL     -0.865740
    171 H77        -2.9500   -1.5990    1.2400 ho        1 MOL      0.420120
    172 H78        -1.7850   -0.9120    1.9230 ho        1 MOL      0.420120
    173 O25         0.1940    0.8460   -2.8550 oh        1 MOL     -0.865740
    174 H79        -0.1670    1.6960   -3.1090 ho        1 MOL      0.420120
    175 H80         1.1430    0.9710   -2.8980 ho        1 MOL      0.420120
@<TRIPOS>BOND
     1    1    2 1   
     2    1    4 1   
     3    1    5 1   
     4    1    6 1   
     5    2    3 2   
     6    2    7 1   
     7    7    8 1   
     8    7   15 1   
     9    8    9 1   
    10    8   11 1   
    11    8   16 1   
    12    9   10 2   
    13    9   19 1   
    14   11   12 1   
    15   11   17 1   
    16   11   18 1   
    17   12   13 1   
    18   12   14 1   
    19   19   20 1   
    20   19   24 1   
    21   20   21 1   
    22   20   23 1   
    23   20   25 1   
    24   21   22 2   
    25   21   29 1   
    26   23   26 1   
    27   23   27 1   
    28   23   28 1   
    29   29   30 1   
    30   29   37 1   
    31   30   31 1   
    32   30   33 1   
    33   30   38 1   
    34   31   32 2   
    35   31   41 1   
    36   33   34 1   
    37   33   39 1   
    38   33   40 1   
    39   34   35 1   
    40   34   36 1   
    41   41   42 1   
    42   41   45 1   
    43   42   43 1   
    44   42   46 1   
    45   42   47 1   
    46   43   44 2   
    47   43   48 1   
    48   48   49 1   
    49   48   56 1   
    50   49   50 1   
    51   49   52 1   
    52   49   57 1   
    53   50   51 2   
    54   50   62 1   
    55   52   53 1   
    56   52   58 1   
    57   52   59 1   
    58   53   54 1   
    59   53   55 2   
    60   54   60 1   
    61   54   61 1   
    62   62   63 1   
    63   62   66 1   
    64   63   64 1   
    65   63   67 1   
    66   63   68 1   
    67   64   65 2   
    68   64   69 1   
    69   69   70 1   
    70   69   76 1   
    71   70   71 1   
    72   70   73 1   
    73   70   77 1   
    74   71   72 2   
    75   71   83 1   
    76   73   74 1   
    77   73   75 1   
    78   73   78 1   
    79   74   80 1   
    80   74   81 1   
    81   74   82 1   
    82   75   79 1   
    83   83   84 1   
    84   83   91 1   
    85   84   85 1   
    86   84   87 1   
    87   84   92 1   
    88   85   86 2   
    89   85  102 1   
    90   87   88 1   
    91   87   89 1   
    92   87   93 1   
    93   88   90 1   
    94   88   94 1   
    95   88   95 1   
    96   89   96 1   
    97   89   97 1   
    98   89   98 1   
    99   90   99 1   
   100   90  100 1   
   101   90  101 1   
   102  102  103 1   
   103  102  110 1   
   104  103  104 1   
   105  103  106 1   
   106  103  111 1   
   107  104  105 2   
   108  104  114 1   
   109  106  107 1   
   110  106  112 1   
   111  106  113 1   
   112  107  108 1   
   113  107  109 1   
   114  114  115 1   
   115  114  125 1   
   116  115  116 1   
   117  115  118 1   
   118  115  126 1   
   119  116  117 2   
   120  116  134 1   
   121  118  119 1   
   122  118  127 1   
   123  118  128 1   
   124  119  120 ar  
   125  119  121 ar  
   126  120  122 ar  
   127  120  129 1   
   128  121  123 ar  
   129  121  130 1   
   130  122  124 ar  
   131  122  131 1   
   132  123  124 ar  
   133  123  132 1   
   134  124  133 1   
   135  134  135 1   
   136  134  140 1   
   137  135  136 1   
   138  135  138 1   
   139  135  141 1   
   140  136  137 2   
   141  136  148 1   
   142  138  139 1   
   143  138  142 1   
   144  138  143 1   
   145  139  140 1   
   146  139  144 1   
   147  139  145 1   
   148  140  146 1   
   149  140  147 1   
   150  148  149 1   
   151  148  157 1   
   152  149  150 1   
   153  149  152 1   
   154  149  158 1   
   155  150  151 2   
   156  150  163 1   
   157  152  153 1   
   158  152  159 1   
   159  152  160 1   
   160  153  154 1   
   161  153  161 1   
   162  153  162 1   
   163  154  155 1   
   164  154  156 1   
   165  163  164 1   
   166  163  168 1   
   167  164  165 1   
   168  164  166 1   
   169  164  167 1   
   170  170  171 1   
   171  170  172 1   
   172  173  174 1   
   173  173  175 1   
@<TRIPOS>SUBSTRUCTURE
     1 MOL         1 TEMP              0 ****  ****    0 ROOT
