@<TRIPOS>MOLECULE
MOL
  195   189     1     0     0
SMALL
resp


@<TRIPOS>ATOM
      1 C1         -6.8640   -3.2720    4.6490 c3        1 MOL     -0.393004
      2 C2         -6.0780   -2.5720    3.4600 c         1 MOL      0.705748
      3 O1         -5.8540   -3.1630    2.3950 o         1 MOL     -0.573778
      4 H1         -6.2040   -3.9730    5.1580 hc        1 MOL      0.106473
      5 H2         -7.2030   -2.5150    5.3560 hc        1 MOL      0.106473
      6 H3         -7.7250   -3.8090    4.2500 hc        1 MOL      0.106473
      7 N1         -5.8340   -1.2230    3.5330 n         1 MOL     -0.507767
      8 C3         -5.2920   -0.2700    2.4630 c3        1 MOL      0.380083
      9 C4         -3.8340   -0.4750    2.0500 c         1 MOL     -0.166802
     10 O2         -3.3390    0.3180    1.2540 o         1 MOL     -0.021666
     11 C5         -5.5220    1.1770    2.9880 c3        1 MOL      0.073214
     12 C6         -6.9300    1.5740    3.2290 c         1 MOL      0.619758
     13 O3         -7.5800    1.1880    4.2050 o         1 MOL     -0.680431
     14 O4         -7.4320    2.3060    2.3010 o         1 MOL     -0.680431
     15 H4         -6.1680   -0.7500    4.3570 hn        1 MOL      0.224611
     16 H5         -6.0040   -0.3370    1.6360 h1        1 MOL      0.034033
     17 H6         -5.1160    1.8920    2.2760 hc        1 MOL     -0.089023
     18 H7         -4.9280    1.2660    3.8960 hc        1 MOL     -0.089023
     19 N2         -3.1660   -1.4400    2.6310 n         1 MOL      0.006474
     20 C7         -1.6790   -1.4900    2.5660 c3        1 MOL      0.098842
     21 C8         -1.1180   -2.7770    1.8920 c         1 MOL      0.437206
     22 O5         -1.6450   -3.8310    2.1380 o         1 MOL     -0.513783
     23 C9         -1.0840   -1.4840    4.0350 c3        1 MOL     -0.137811
     24 C10        -1.2750   -0.1960    4.8530 c3        1 MOL      0.121765
     25 C11        -0.4800   -0.0810    6.1970 c3        1 MOL     -0.388825
     26 C12         1.0410   -0.0820    6.0260 c3        1 MOL      0.200872
     27 N3          1.7130   -0.1290    7.3050 n4        1 MOL     -0.572291
     28 H8         -3.7800   -1.9870    3.2310 hn        1 MOL      0.130333
     29 H9         -1.2910   -0.7060    1.9170 h1        1 MOL     -0.068698
     30 H10        -0.0080   -1.6770    3.9150 hc        1 MOL      0.032449
     31 H11        -1.5720   -2.3030    4.5690 hc        1 MOL      0.032449
     32 H12        -2.3140   -0.2500    5.1850 hc        1 MOL      0.046024
     33 H13        -1.0710    0.7440    4.3450 hc        1 MOL      0.046024
     34 H14        -0.8530   -0.8710    6.8530 hc        1 MOL      0.111676
     35 H15        -0.7490    0.8690    6.6580 hc        1 MOL      0.111676
     36 H16         1.3600    0.7310    5.3750 hx        1 MOL      0.086060
     37 H17         1.3180   -0.9410    5.4070 hx        1 MOL      0.086060
     38 H18         1.5770    0.7270    7.8240 hn        1 MOL      0.385784
     39 H19         1.3120   -0.9310    7.7670 hn        1 MOL      0.385784
     40 H20         2.7220   -0.2080    7.2170 hn        1 MOL      0.385784
     41 N4         -0.1680   -2.7900    0.9830 n         1 MOL     -0.275817
     42 C13         0.7690   -1.7210    0.6200 c3        1 MOL      0.016079
     43 C14         1.2750   -0.6950    1.6520 c         1 MOL      0.304525
     44 O6          0.7150    0.4220    1.8770 o         1 MOL     -0.442481
     45 C15         0.3480   -0.9860   -0.6640 c3        1 MOL     -0.088113
     46 C16         0.1740   -2.0570   -1.7500 c         1 MOL      0.563666
     47 O7          0.9390   -3.0200   -1.8160 o         1 MOL     -0.684853
     48 O8         -0.8220   -1.9780   -2.5030 o         1 MOL     -0.684853
     49 H21         0.0780   -3.6270    0.4870 hn        1 MOL      0.205044
     50 H22         1.6700   -2.2560    0.3320 h1        1 MOL      0.004399
     51 H23         1.1730   -0.3600   -1.0070 hc        1 MOL      0.096023
     52 H24        -0.5570   -0.4100   -0.5180 hc        1 MOL      0.096023
     53 N5          2.3350   -1.0310    2.3250 n         1 MOL     -0.006447
     54 C17         3.4100   -2.0610    1.9760 c3        1 MOL     -0.402769
     55 C18         4.6420   -1.9330    3.0050 c         1 MOL      0.609069
     56 O9          4.6310   -1.0660    3.8960 o         1 MOL     -0.552502
     57 H25         2.6150   -0.4650    3.1180 hn        1 MOL      0.136126
     58 H26         3.8230   -1.8300    0.9980 h1        1 MOL      0.174699
     59 H27         3.0110   -3.0770    2.0540 h1        1 MOL      0.174699
     60 N6          5.5410   -2.8610    2.9680 n         1 MOL     -0.488321
     61 C19         5.9170   -3.7190    1.8680 c3        1 MOL      0.186221
     62 C20         6.4960   -2.8950    0.6320 c         1 MOL      0.401557
     63 O10         6.9430   -1.7580    0.8480 o         1 MOL     -0.394286
     64 C21         6.8000   -4.9300    2.2700 c3        1 MOL     -0.075866
     65 C22         8.1120   -4.4640    2.9960 c         1 MOL      0.631479
     66 O11         9.0470   -4.0780    2.2160 o         1 MOL     -0.672873
     67 O12         8.1450   -4.3930    4.2800 o         1 MOL     -0.672873
     68 H28         6.2460   -2.7850    3.6890 hn        1 MOL      0.307776
     69 H29         4.9930   -4.2260    1.5880 h1        1 MOL     -0.036505
     70 H30         7.0240   -5.5140    1.3660 hc        1 MOL     -0.010157
     71 H31         6.3040   -5.6060    2.9610 hc        1 MOL     -0.010157
     72 N7          6.5120   -3.4180   -0.5980 n         1 MOL     -0.335374
     73 C23         7.2040   -2.8790   -1.7260 c3        1 MOL     -0.237928
     74 C24         6.8480   -1.5350   -2.3570 c         1 MOL      0.433326
     75 O13         7.6530   -1.0970   -3.2620 o         1 MOL     -0.548580
     76 H32         6.0350   -4.3020   -0.6660 hn        1 MOL      0.255301
     77 H33         7.0780   -3.6010   -2.5400 h1        1 MOL      0.156454
     78 H34         8.2600   -2.7860   -1.4930 h1        1 MOL      0.156454
     79 N8          5.8320   -0.8630   -1.7870 n         1 MOL     -0.132814
     80 C25         5.3840    0.4770   -2.1970 c3        1 MOL      0.051097
     81 C26         5.7110    1.5370   -1.1430 c         1 MOL      0.551230
     82 O14         5.6050    1.2670    0.0260 o         1 MOL     -0.550021
     83 C27         3.9020    0.5000   -2.6050 c3        1 MOL      0.206219
     84 C28         3.3960   -0.3080   -3.7950 c3        1 MOL     -0.353655
     85 O15         3.6710    1.8220   -3.0750 oh        1 MOL     -0.545158
     86 H35         5.2940   -1.3960   -1.1220 hn        1 MOL      0.086767
     87 H36         5.9450    0.6740   -3.1030 h1        1 MOL      0.069286
     88 H37         3.2830    0.2700   -1.7300 h1        1 MOL      0.088237
     89 H38         2.7230    1.9320   -3.1340 ho        1 MOL      0.362881
     90 H39         3.6720   -1.3440   -3.6370 hc        1 MOL      0.096645
     91 H40         2.3200   -0.1800   -3.9540 hc        1 MOL      0.096645
     92 H41         3.8670    0.0710   -4.7070 hc        1 MOL      0.096645
     93 N9          6.0000    2.7230   -1.4950 n         1 MOL     -0.550031
     94 C29         6.1450    3.9090   -0.6410 c3        1 MOL      0.278510
     95 C30         4.8440    4.6700   -0.3260 c         1 MOL      0.302959
     96 O16         4.8260    5.5910    0.4640 o         1 MOL     -0.517299
     97 C31         7.0910    4.8660   -1.3390 c3        1 MOL      0.198533
     98 C32         8.0960    5.5770   -0.4140 c3        1 MOL      0.046400
     99 C33         6.5290    5.7020   -2.5150 c3        1 MOL     -0.369943
    100 C34         8.6570    4.6990    0.6620 c3        1 MOL     -0.303830
    101 H42         6.1160    2.8870   -2.4960 hn        1 MOL      0.274858
    102 H43         6.5040    3.5560    0.3310 h1        1 MOL      0.070454
    103 H44         7.7020    4.1690   -1.8960 hc        1 MOL     -0.014072
    104 H45         7.5050    6.3570    0.0540 hc        1 MOL     -0.006921
    105 H46         8.9050    5.9690   -1.0210 hc        1 MOL     -0.006921
    106 H47         5.9780    5.1220   -3.2460 hc        1 MOL      0.087689
    107 H48         6.0040    6.5590   -2.0850 hc        1 MOL      0.087689
    108 H49         7.4090    6.0800   -3.0440 hc        1 MOL      0.087689
    109 H50         8.6800    3.6850    0.2600 hc        1 MOL      0.078741
    110 H51         9.6640    5.1020    0.8280 hc        1 MOL      0.078741
    111 H52         8.0250    4.7890    1.5450 hc        1 MOL      0.078741
    112 N10         3.6810    4.2730   -0.8560 n         1 MOL     -0.129722
    113 C35         2.2840    4.8700   -0.5950 c3        1 MOL     -0.189315
    114 C36         1.2350    3.6610   -0.4770 c         1 MOL      0.642156
    115 O17         1.2920    2.7710   -1.2970 o         1 MOL     -0.531422
    116 C37         1.9990    5.9210   -1.7050 c3        1 MOL      0.342679
    117 C38         1.7550    5.3260   -3.0670 c3        1 MOL     -0.214050
    118 O18         3.0060    6.9270   -1.8640 oh        1 MOL     -0.566700
    119 H53         3.7540    3.4350   -1.4120 hn        1 MOL      0.083769
    120 H54         2.3040    5.3820    0.3650 h1        1 MOL      0.096255
    121 H55         1.0580    6.3840   -1.4160 h1        1 MOL     -0.021707
    122 H56         3.0640    7.2380   -0.9590 ho        1 MOL      0.366283
    123 H57         1.3000    6.0620   -3.7370 hc        1 MOL      0.068547
    124 H58         2.6700    4.8950   -3.4750 hc        1 MOL      0.068547
    125 H59         0.9820    4.5560   -3.0200 hc        1 MOL      0.068547
    126 N11         0.2080    3.8720    0.2950 n         1 MOL     -0.523272
    127 C39        -0.9190    2.9920    0.4940 c3        1 MOL      0.052336
    128 C40        -2.1670    3.3740   -0.3560 c         1 MOL      0.717992
    129 O19        -2.2320    4.5210   -0.8440 o         1 MOL     -0.592470
    130 C41        -1.3840    2.8930    1.9730 c3        1 MOL      0.372161
    131 C42        -2.1070    4.1650    2.5650 c3        1 MOL     -0.370165
    132 O20        -0.2680    2.6820    2.9100 oh        1 MOL     -0.599980
    133 H60         0.2510    4.6840    0.9010 hn        1 MOL      0.282258
    134 H61        -0.5980    2.0010    0.1780 h1        1 MOL     -0.004579
    135 H62        -2.0070    1.9920    2.0150 h1        1 MOL     -0.026276
    136 H63         0.2030    1.9580    2.4980 ho        1 MOL      0.319727
    137 H64        -2.3930    4.0330    3.6080 hc        1 MOL      0.100918
    138 H65        -1.3800    4.9490    2.7670 hc        1 MOL      0.100918
    139 H66        -2.8520    4.5940    1.8840 hc        1 MOL      0.100918
    140 N12        -3.1410    2.4780   -0.5510 n         1 MOL     -0.552412
    141 C43        -4.2770    2.6130   -1.4480 c3        1 MOL     -0.025509
    142 C44        -4.6860    1.2590   -2.0170 c         1 MOL      0.523444
    143 O21        -5.4180    1.1930   -2.9990 o         1 MOL     -0.610847
    144 C45        -5.3400    3.3280   -0.6740 c3        1 MOL     -0.019043
    145 C46        -6.5330    3.6780   -1.5950 c3        1 MOL     -0.187884
    146 C47        -7.5650    4.5380   -0.8580 c3        1 MOL      0.302035
    147 C48        -8.6960    5.1320   -1.7190 c3        1 MOL      0.135767
    148 N13        -9.7450    5.8710   -0.9130 n4        1 MOL     -0.435201
    149 H67        -3.1720    1.6840    0.0760 hn        1 MOL      0.166647
    150 H68        -4.0170    3.3010   -2.2570 h1        1 MOL      0.096126
    151 H69        -5.0650    4.2480   -0.1500 hc        1 MOL      0.065941
    152 H70        -5.7860    2.6330    0.0260 hc        1 MOL      0.065941
    153 H71        -7.0280    2.7760   -1.9530 hc        1 MOL      0.067660
    154 H72        -6.0950    4.2500   -2.4170 hc        1 MOL      0.067660
    155 H73        -6.9690    5.3510   -0.4410 hc        1 MOL     -0.075083
    156 H74        -7.9430    3.9670   -0.0060 hc        1 MOL     -0.075083
    157 H75        -9.1520    4.2950   -2.2380 hx        1 MOL      0.022964
    158 H76        -8.2860    5.7750   -2.4970 hx        1 MOL      0.022964
    159 H77       -10.4310    5.2110   -0.5630 hn        1 MOL      0.340082
    160 H78        -9.2550    6.3180   -0.1590 hn        1 MOL      0.340082
    161 H79       -10.2350    6.5640   -1.4560 hn        1 MOL      0.340082
    162 N14        -4.4590    0.1810   -1.3030 n         1 MOL     -0.009651
    163 C49        -4.8520   -1.1060   -1.7660 c3        1 MOL     -0.668605
    164 C50        -6.3780   -1.2700   -1.6440 c         1 MOL      0.633281
    165 O22        -7.0160   -0.7590   -0.7750 o         1 MOL     -0.522366
    166 C51        -4.1070   -2.1520   -1.0130 c3        1 MOL      1.340396
    167 C52        -4.1930   -3.6170   -1.2540 c3        1 MOL     -0.775303
    168 C53        -4.0560   -3.9830   -2.7460 c         1 MOL      0.935959
    169 O23        -4.7610   -3.4230   -3.5810 o         1 MOL     -0.823850
    170 O24        -3.1450   -4.7400   -3.1030 o         1 MOL     -0.823850
    171 H80        -3.9660    0.2750   -0.4200 hn        1 MOL     -0.004901
    172 H81        -4.6470   -1.1460   -2.8320 h1        1 MOL      0.203439
    173 H82        -4.2970   -1.9800    0.0520 hc        1 MOL     -0.300126
    174 H83        -3.0650   -1.9250   -1.2040 hc        1 MOL     -0.300126
    175 H84        -5.1950   -3.9270   -0.9430 hc        1 MOL      0.124101
    176 H85        -3.3760   -4.1000   -0.7270 hc        1 MOL      0.124101
    177 N15        -6.9650   -1.9920   -2.5360 n         1 MOL     -0.488782
    178 C54        -8.3650   -2.4390   -2.6890 c3        1 MOL      0.005416
    179 H86        -8.4770   -3.4350   -2.2610 h1        1 MOL      0.044883
    180 H87        -9.0270   -1.7450   -2.1700 h1        1 MOL      0.044883
    181 H88        -8.6240   -2.4670   -3.7470 h1        1 MOL      0.044883
    182 H89        -6.2740   -2.4540   -3.1090 hn        1 MOL      0.429285
    183 Ca1        -0.5720   -4.5040   -3.2970 Ca        1 MOL      1.770261
    184 O25         1.5820   -3.7540   -4.8060 oh        1 MOL     -0.868308
    185 H90         1.4930   -3.0400   -5.4380 ho        1 MOL      0.425784
    186 H91         2.4540   -4.1100   -4.9760 ho        1 MOL      0.425784
    187 O26        -2.1720   -7.0520   -2.8070 oh        1 MOL     -0.868308
    188 H92        -2.7460   -6.2910   -2.7610 ho        1 MOL      0.425784
    189 H93        -2.6710   -7.7140   -3.2830 ho        1 MOL      0.425784
    190 O27        -0.9290   -5.9600   -5.4830 oh        1 MOL     -0.868308
    191 H94        -0.9820   -5.4910   -6.3160 ho        1 MOL      0.425784
    192 H95        -1.6100   -6.6240   -5.5320 ho        1 MOL      0.425784
    193 O28        -1.8130   -3.0050   -5.1980 oh        1 MOL     -0.868308
    194 H96        -2.7680   -2.9710   -5.2580 ho        1 MOL      0.425784
    195 H97        -1.5120   -2.6850   -6.0540 ho        1 MOL      0.425784
@<TRIPOS>BOND
     1    1    2 1   
     2    1    4 1   
     3    1    5 1   
     4    1    6 1   
     5    2    3 2   
     6    2    7 1   
     7    7    8 1   
     8    7   15 1   
     9    8    9 1   
    10    8   11 1   
    11    8   16 1   
    12    9   10 2   
    13    9   19 1   
    14   11   12 1   
    15   11   17 1   
    16   11   18 1   
    17   12   13 1   
    18   12   14 1   
    19   19   20 1   
    20   19   28 1   
    21   20   21 1   
    22   20   23 1   
    23   20   29 1   
    24   21   22 2   
    25   21   41 1   
    26   23   24 1   
    27   23   30 1   
    28   23   31 1   
    29   24   25 1   
    30   24   32 1   
    31   24   33 1   
    32   25   26 1   
    33   25   34 1   
    34   25   35 1   
    35   26   27 1   
    36   26   36 1   
    37   26   37 1   
    38   27   38 1   
    39   27   39 1   
    40   27   40 1   
    41   41   42 1   
    42   41   49 1   
    43   42   43 1   
    44   42   45 1   
    45   42   50 1   
    46   43   44 2   
    47   43   53 1   
    48   45   46 1   
    49   45   51 1   
    50   45   52 1   
    51   46   47 1   
    52   46   48 1   
    53   53   54 1   
    54   53   57 1   
    55   54   55 1   
    56   54   58 1   
    57   54   59 1   
    58   55   56 2   
    59   55   60 1   
    60   60   61 1   
    61   60   68 1   
    62   61   62 1   
    63   61   64 1   
    64   61   69 1   
    65   62   63 2   
    66   62   72 1   
    67   64   65 1   
    68   64   70 1   
    69   64   71 1   
    70   65   66 1   
    71   65   67 1   
    72   72   73 1   
    73   72   76 1   
    74   73   74 1   
    75   73   77 1   
    76   73   78 1   
    77   74   75 2   
    78   74   79 1   
    79   79   80 1   
    80   79   86 1   
    81   80   81 1   
    82   80   83 1   
    83   80   87 1   
    84   81   82 2   
    85   81   93 1   
    86   83   84 1   
    87   83   85 1   
    88   83   88 1   
    89   84   90 1   
    90   84   91 1   
    91   84   92 1   
    92   85   89 1   
    93   93   94 1   
    94   93  101 1   
    95   94   95 1   
    96   94   97 1   
    97   94  102 1   
    98   95   96 2   
    99   95  112 1   
   100   97   98 1   
   101   97   99 1   
   102   97  103 1   
   103   98  100 1   
   104   98  104 1   
   105   98  105 1   
   106   99  106 1   
   107   99  107 1   
   108   99  108 1   
   109  100  109 1   
   110  100  110 1   
   111  100  111 1   
   112  112  113 1   
   113  112  119 1   
   114  113  114 1   
   115  113  116 1   
   116  113  120 1   
   117  114  115 2   
   118  114  126 1   
   119  116  117 1   
   120  116  118 1   
   121  116  121 1   
   122  117  123 1   
   123  117  124 1   
   124  117  125 1   
   125  118  122 1   
   126  126  127 1   
   127  126  133 1   
   128  127  128 1   
   129  127  130 1   
   130  127  134 1   
   131  128  129 2   
   132  128  140 1   
   133  130  131 1   
   134  130  132 1   
   135  130  135 1   
   136  131  137 1   
   137  131  138 1   
   138  131  139 1   
   139  132  136 1   
   140  140  141 1   
   141  140  149 1   
   142  141  142 1   
   143  141  144 1   
   144  141  150 1   
   145  142  143 2   
   146  142  162 1   
   147  144  145 1   
   148  144  151 1   
   149  144  152 1   
   150  145  146 1   
   151  145  153 1   
   152  145  154 1   
   153  146  147 1   
   154  146  155 1   
   155  146  156 1   
   156  147  148 1   
   157  147  157 1   
   158  147  158 1   
   159  148  159 1   
   160  148  160 1   
   161  148  161 1   
   162  162  163 1   
   163  162  171 1   
   164  163  164 1   
   165  163  166 1   
   166  163  172 1   
   167  164  165 2   
   168  164  177 1   
   169  166  167 1   
   170  166  173 1   
   171  166  174 1   
   172  167  168 1   
   173  167  175 1   
   174  167  176 1   
   175  168  169 1   
   176  168  170 1   
   177  177  178 1   
   178  177  182 1   
   179  178  179 1   
   180  178  180 1   
   181  178  181 1   
   182  184  185 1   
   183  184  186 1   
   184  187  188 1   
   185  187  189 1   
   186  190  191 1   
   187  190  192 1   
   188  193  194 1   
   189  193  195 1   
@<TRIPOS>SUBSTRUCTURE
     1 MOL         1 TEMP              0 ****  ****    0 ROOT
