@<TRIPOS>MOLECULE
MOL
  181   177     1     0     0
SMALL
resp


@<TRIPOS>ATOM
      1 C1         -9.0380   -6.4380   -2.5560 c3        1 MOL     -0.345439
      2 C2         -7.8440   -5.8280   -1.7740 c         1 MOL      0.744261
      3 O1         -6.8210   -6.4180   -1.5110 o         1 MOL     -0.617241
      4 H1         -9.4500   -7.2750   -1.9930 hc        1 MOL      0.091873
      5 H2         -9.8090   -5.6790   -2.6930 hc        1 MOL      0.091873
      6 H3         -8.6950   -6.7880   -3.5290 hc        1 MOL      0.091873
      7 N1         -7.8680   -4.6250   -1.2470 n         1 MOL     -0.683276
      8 C3         -8.6490   -3.4740   -1.6480 c3        1 MOL      0.092084
      9 C4         -9.3680   -2.7200   -0.5110 c         1 MOL      0.484076
     10 O2        -10.1540   -1.8150   -0.7050 o         1 MOL     -0.561407
     11 C5         -7.7380   -2.6640   -2.5790 c3        1 MOL     -0.248121
     12 C6         -6.4510   -2.2230   -1.8350 c         1 MOL      0.987654
     13 O3         -6.3540   -2.0950   -0.5650 o         1 MOL     -0.903991
     14 O4         -5.3740   -2.0630   -2.4340 o         1 MOL     -0.903991
     15 H4         -7.0390   -4.4230   -0.6840 hn        1 MOL      0.384815
     16 H5         -9.4980   -3.8130   -2.2360 h1        1 MOL      0.084113
     17 H6         -8.2870   -1.7750   -2.9030 hc        1 MOL      0.084507
     18 H7         -7.4690   -3.1500   -3.5190 hc        1 MOL      0.084507
     19 N2         -9.0730   -3.0410    0.7480 n         1 MOL     -0.370500
     20 C7         -9.5200   -2.2020    1.8770 c3        1 MOL      0.065539
     21 C8         -8.9060   -0.7610    1.9240 c         1 MOL      0.447068
     22 O5         -9.6390    0.1430    2.4470 o         1 MOL     -0.579708
     23 C9         -9.2130   -2.9370    3.2080 c3        1 MOL     -0.259405
     24 H8         -8.3910   -3.7310    1.0290 hn        1 MOL      0.268587
     25 H9        -10.6080   -2.1390    1.8070 h1        1 MOL      0.082788
     26 H10        -9.4290   -3.9800    2.9880 hc        1 MOL      0.082161
     27 H11        -8.1590   -2.8010    3.4320 hc        1 MOL      0.082161
     28 H12        -9.7720   -2.5890    4.0770 hc        1 MOL      0.082161
     29 N3         -7.7520   -0.4660    1.2950 n         1 MOL     -0.109268
     30 C10        -7.2280    0.9100    1.1450 c3        1 MOL     -0.057024
     31 C11        -6.6940    1.1160   -0.2530 c         1 MOL      0.233940
     32 O6         -5.6360    0.6210   -0.6720 o         1 MOL     -0.332056
     33 C12        -6.1520    1.1640    2.2310 c3        1 MOL      0.096245
     34 C13        -5.3610   -0.0180    2.6240 c         1 MOL      0.543819
     35 O7         -4.8870   -0.7190    1.7490 o         1 MOL     -0.665877
     36 O8         -5.3210   -0.2680    3.8320 o         1 MOL     -0.665877
     37 H13        -7.2580   -1.2310    0.8410 hn        1 MOL      0.249143
     38 H14        -8.0020    1.6160    1.4270 h1        1 MOL      0.055067
     39 H15        -6.6680    1.4810    3.1360 hc        1 MOL     -0.029949
     40 H16        -5.4860    1.9450    1.8580 hc        1 MOL     -0.029949
     41 N4         -7.4530    1.8610   -1.0550 n         1 MOL     -0.298169
     42 C14        -7.1370    2.0050   -2.4710 c3        1 MOL     -0.175811
     43 C15        -5.7790    2.6270   -2.7650 c         1 MOL      0.547916
     44 O9         -4.9080    2.0290   -3.4440 o         1 MOL     -0.573023
     45 H17        -8.3130    2.2920   -0.7280 hn        1 MOL      0.293809
     46 H18        -7.9570    2.6590   -2.7740 h1        1 MOL      0.109308
     47 H19        -7.1570    1.0520   -2.9950 h1        1 MOL      0.109308
     48 N5         -5.5610    3.9070   -2.3640 n         1 MOL     -0.399069
     49 C16        -4.3400    4.7240   -2.6220 c3        1 MOL      0.202424
     50 C17        -3.2700    4.6250   -1.5200 c         1 MOL      0.492528
     51 O10        -2.5140    5.5890   -1.2680 o         1 MOL     -0.534014
     52 C18        -4.7960    6.2000   -2.9370 c3        1 MOL     -0.302154
     53 C19        -5.6850    6.2650   -4.2670 c         1 MOL      0.688418
     54 N6         -6.8490    6.7260   -4.1820 n         1 MOL     -0.787998
     55 O11        -5.2550    5.8900   -5.3180 o         1 MOL     -0.546309
     56 H20        -6.3200    4.2380   -1.7860 hn        1 MOL      0.228437
     57 H21        -3.9000    4.3660   -3.5530 h1        1 MOL      0.079246
     58 H22        -3.9380    6.8370   -3.1600 hc        1 MOL      0.076717
     59 H23        -5.3180    6.6700   -2.0970 hc        1 MOL      0.076717
     60 H24        -7.0330    7.3140   -3.3720 hn        1 MOL      0.361799
     61 H25        -7.3500    6.8270   -5.0520 hn        1 MOL      0.361799
     62 N7         -3.2540    3.5350   -0.8220 n         1 MOL     -0.440047
     63 C20        -2.3220    3.3160    0.2400 c3        1 MOL      0.042910
     64 C21        -2.3310    1.9980    0.9910 c         1 MOL      0.781511
     65 O12        -2.9730    1.0490    0.6240 o         1 MOL     -0.771492
     66 H26        -3.9370    2.8070   -0.9420 hn        1 MOL      0.261270
     67 H27        -2.4640    4.1630    0.9150 h1        1 MOL      0.104866
     68 H28        -1.3420    3.4260   -0.2230 h1        1 MOL      0.104866
     69 N8         -1.7220    1.8900    2.1900 n         1 MOL     -0.466608
     70 C22        -0.7730    2.8410    2.7410 c3        1 MOL     -0.289386
     71 C23         0.6630    2.2890    3.0070 c         1 MOL      0.605369
     72 O13         1.5140    3.0610    3.4230 o         1 MOL     -0.534995
     73 C24        -1.2530    3.6550    3.9330 c3        1 MOL      0.539667
     74 C25        -2.4930    4.4960    3.7280 c3        1 MOL     -0.307121
     75 O14        -1.5180    2.7640    5.0270 oh        1 MOL     -0.632669
     76 H29        -1.8590    1.0610    2.7510 hn        1 MOL      0.348756
     77 H30        -0.6340    3.6590    2.0240 h1        1 MOL      0.066130
     78 H31        -0.4330    4.2980    4.2410 h1        1 MOL      0.032857
     79 H32        -2.1580    2.1240    4.6940 ho        1 MOL      0.390422
     80 H33        -3.3450    3.8610    3.5000 hc        1 MOL      0.051084
     81 H34        -2.6280    5.1560    4.5870 hc        1 MOL      0.051084
     82 H35        -2.3540    5.1220    2.8540 hc        1 MOL      0.051084
     83 N9          0.7730    0.9580    2.9800 n         1 MOL     -0.371007
     84 C26         1.9130    0.0730    3.2280 c3        1 MOL      0.065105
     85 C27         2.4180   -0.6490    1.9520 c         1 MOL      0.470645
     86 O15         1.8000   -1.6570    1.5040 o         1 MOL     -0.521762
     87 C28         1.7140   -0.9140    4.3920 c3        1 MOL      0.012061
     88 C29         1.3430   -0.2320    5.7350 c3        1 MOL      0.022303
     89 C30         3.1400   -1.4720    4.6940 c3        1 MOL      0.048460
     90 C31         2.1210    1.0070    6.2100 c3        1 MOL     -0.206958
     91 H36         0.0090    0.4830    2.5270 hn        1 MOL      0.189611
     92 H37         2.6840    0.7600    3.5930 h1        1 MOL      0.108784
     93 H38         1.0260   -1.7330    4.1940 hc        1 MOL      0.027900
     94 H39         1.3400   -0.9530    6.5580 hc        1 MOL     -0.014203
     95 H40         0.2940    0.0530    5.7050 hc        1 MOL     -0.014203
     96 H41         3.8770   -0.6770    4.7590 hc        1 MOL     -0.006179
     97 H42         3.2130   -2.0850    5.5960 hc        1 MOL     -0.006179
     98 H43         3.3160   -2.1640    3.8720 hc        1 MOL     -0.006179
     99 H44         3.1730    0.8510    6.4390 hc        1 MOL      0.047339
    100 H45         1.9390    1.8530    5.5390 hc        1 MOL      0.047339
    101 H46         1.6440    1.2130    7.1640 hc        1 MOL      0.047339
    102 N10         3.5080   -0.1840    1.2700 n         1 MOL     -0.451328
    103 C32         4.5360    0.8700    1.5550 c3        1 MOL     -0.106275
    104 C33         5.7720    0.5820    0.6730 c         1 MOL      0.554629
    105 O16         5.7280    0.1060   -0.4300 o         1 MOL     -0.504159
    106 C34         4.1210    2.3550    1.2800 c3        1 MOL     -0.047449
    107 C35         3.6810    2.6670   -0.1800 c         1 MOL      0.718969
    108 O17         2.5470    2.3090   -0.5580 o         1 MOL     -0.726395
    109 O18         4.3680    3.4170   -0.9510 o         1 MOL     -0.726395
    110 H47         3.7360   -0.7200    0.4410 hn        1 MOL      0.342052
    111 H48         4.8370    0.9470    2.6040 h1        1 MOL      0.099009
    112 H49         4.9740    3.0020    1.5170 hc        1 MOL     -0.012924
    113 H50         3.3120    2.6630    1.9370 hc        1 MOL     -0.012924
    114 N11         6.9060    1.0280    1.1100 n         1 MOL     -0.513207
    115 C36         8.1660    1.0160    0.3040 c3        1 MOL      0.507914
    116 C37         9.2270   -0.0140    0.8130 c         1 MOL      0.147779
    117 O19         9.6340    0.0130    2.0210 o         1 MOL     -0.520117
    118 C38         8.6730    2.4960    0.1110 c3        1 MOL     -0.277521
    119 C39         9.9530    2.5890   -0.6750 ca        1 MOL      0.109528
    120 C40        11.2250    2.3840   -0.1290 ca        1 MOL     -0.146632
    121 C41         9.9280    2.8680   -2.0580 ca        1 MOL     -0.146632
    122 C42        12.4090    2.4350   -0.9360 ca        1 MOL     -0.172414
    123 C43        11.0840    2.7460   -2.8520 ca        1 MOL     -0.172414
    124 C44        12.3540    2.6600   -2.3240 ca        1 MOL     -0.046103
    125 H51         6.9820    1.1580    2.1030 hn        1 MOL      0.286500
    126 H52         7.8360    0.7510   -0.6980 h1        1 MOL     -0.002470
    127 H53         8.8070    2.8480    1.1380 hc        1 MOL      0.077629
    128 H54         7.9130    3.0380   -0.4610 hc        1 MOL      0.077629
    129 H55        11.3670    2.2250    0.9350 ha        1 MOL      0.130088
    130 H56         8.9820    2.9760   -2.5670 ha        1 MOL      0.130088
    131 H57        13.3390    2.1820   -0.4420 ha        1 MOL      0.107661
    132 H58        10.9940    2.8900   -3.9160 ha        1 MOL      0.107661
    133 H59        13.2820    2.7740   -2.8680 ha        1 MOL      0.083904
    134 N12         9.7620   -0.9540    0.0020 n         1 MOL      0.212827
    135 C45         9.6130   -0.9130   -1.5520 c3        1 MOL     -0.345304
    136 C46         8.3590   -1.6870   -2.0850 c         1 MOL      0.706329
    137 O20         7.9290   -1.4870   -3.2500 o         1 MOL     -0.600984
    138 C47        10.9170   -1.5430   -2.0850 c3        1 MOL      0.171917
    139 C48        11.3880   -2.4220   -0.9500 c3        1 MOL     -0.130742
    140 C49        10.8620   -1.8680    0.3690 c3        1 MOL     -0.267059
    141 H60         9.6490    0.0860   -1.9890 h1        1 MOL      0.140941
    142 H61        10.8210   -2.1840   -2.9510 hc        1 MOL     -0.013335
    143 H62        11.6550   -0.7700   -2.3400 hc        1 MOL     -0.013335
    144 H63        10.9470   -3.3950   -1.1860 hc        1 MOL      0.066993
    145 H64        12.4480   -2.6580   -1.0230 hc        1 MOL      0.066993
    146 H65        10.5260   -2.6010    1.1010 h1        1 MOL      0.111005
    147 H66        11.5210   -1.2150    0.9350 h1        1 MOL      0.111005
    148 N13         7.6770   -2.4380   -1.2530 n         1 MOL     -0.528616
    149 C50         6.4400   -3.1230   -1.6580 c3        1 MOL      0.228662
    150 C51         6.6140   -4.0530   -2.9010 c         1 MOL      0.455669
    151 O21         7.3810   -5.0370   -2.7530 o         1 MOL     -0.584301
    152 C52         5.7940   -4.0240   -0.6030 c3        1 MOL      0.046104
    153 C53         5.0920   -3.2020    0.4160 c3        1 MOL      0.059198
    154 C54         4.7520   -3.8140    1.7550 c         1 MOL      0.731274
    155 O22         5.4330   -3.3750    2.7560 o         1 MOL     -0.748556
    156 O23         3.9560   -4.7420    1.9550 o         1 MOL     -0.748556
    157 H67         7.7980   -2.2450   -0.2700 hn        1 MOL      0.277954
    158 H68         5.6560   -2.3950   -1.8870 h1        1 MOL      0.069259
    159 H69         6.5170   -4.6250   -0.0650 hc        1 MOL     -0.023548
    160 H70         5.0260   -4.6680   -1.0280 hc        1 MOL     -0.023548
    161 H71         4.2040   -2.7930   -0.0820 hc        1 MOL     -0.100220
    162 H72         5.6700   -2.2930    0.6070 hc        1 MOL     -0.100220
    163 N14         6.0100   -3.8430   -4.0960 n         1 MOL     -0.415748
    164 C55         5.4740   -2.5940   -4.6890 c3        1 MOL     -0.073943
    165 H73         6.1970   -1.7890   -4.5580 h1        1 MOL      0.072483
    166 H74         5.2900   -2.7460   -5.7530 h1        1 MOL      0.072483
    167 H75         4.5410   -2.3260   -4.1930 h1        1 MOL      0.072483
    168 H76         6.3250   -4.6010   -4.6830 hn        1 MOL      0.270334
    169 Ca1        -3.8910   -1.2630   -0.4250 Ca        1 MOL      1.813685
    170 O24        -2.9540   -3.1210   -2.2370 oh        1 MOL     -0.854905
    171 H77        -2.5390   -3.8190   -2.7430 ho        1 MOL      0.424433
    172 H78        -3.7850   -2.9640   -2.6880 ho        1 MOL      0.424433
    173 O25        -1.2730   -1.2530   -0.1060 oh        1 MOL     -0.854905
    174 H79        -0.7660   -0.4450   -0.0890 ho        1 MOL      0.424433
    175 H80        -0.6670   -1.9260    0.2020 ho        1 MOL      0.424433
    176 O26        -3.0130   -3.2450    1.1200 oh        1 MOL     -0.854905
    177 H81        -3.3860   -4.1130    1.2460 ho        1 MOL      0.424433
    178 H82        -2.0740   -3.3700    1.2780 ho        1 MOL      0.424433
    179 O27        -3.3470   -0.0390   -2.6320 oh        1 MOL     -0.854905
    180 H83        -3.7000    0.8220   -2.8450 ho        1 MOL      0.424433
    181 H84        -3.3970   -0.5380   -3.4480 ho        1 MOL      0.424433
@<TRIPOS>BOND
     1    1    2 1   
     2    1    4 1   
     3    1    5 1   
     4    1    6 1   
     5    2    3 2   
     6    2    7 1   
     7    7    8 1   
     8    7   15 1   
     9    8    9 1   
    10    8   11 1   
    11    8   16 1   
    12    9   10 2   
    13    9   19 1   
    14   11   12 1   
    15   11   17 1   
    16   11   18 1   
    17   12   13 1   
    18   12   14 1   
    19   19   20 1   
    20   19   24 1   
    21   20   21 1   
    22   20   23 1   
    23   20   25 1   
    24   21   22 2   
    25   21   29 1   
    26   23   26 1   
    27   23   27 1   
    28   23   28 1   
    29   29   30 1   
    30   29   37 1   
    31   30   31 1   
    32   30   33 1   
    33   30   38 1   
    34   31   32 2   
    35   31   41 1   
    36   33   34 1   
    37   33   39 1   
    38   33   40 1   
    39   34   35 1   
    40   34   36 1   
    41   41   42 1   
    42   41   45 1   
    43   42   43 1   
    44   42   46 1   
    45   42   47 1   
    46   43   44 2   
    47   43   48 1   
    48   48   49 1   
    49   48   56 1   
    50   49   50 1   
    51   49   52 1   
    52   49   57 1   
    53   50   51 2   
    54   50   62 1   
    55   52   53 1   
    56   52   58 1   
    57   52   59 1   
    58   53   54 1   
    59   53   55 2   
    60   54   60 1   
    61   54   61 1   
    62   62   63 1   
    63   62   66 1   
    64   63   64 1   
    65   63   67 1   
    66   63   68 1   
    67   64   65 2   
    68   64   69 1   
    69   69   70 1   
    70   69   76 1   
    71   70   71 1   
    72   70   73 1   
    73   70   77 1   
    74   71   72 2   
    75   71   83 1   
    76   73   74 1   
    77   73   75 1   
    78   73   78 1   
    79   74   80 1   
    80   74   81 1   
    81   74   82 1   
    82   75   79 1   
    83   83   84 1   
    84   83   91 1   
    85   84   85 1   
    86   84   87 1   
    87   84   92 1   
    88   85   86 2   
    89   85  102 1   
    90   87   88 1   
    91   87   89 1   
    92   87   93 1   
    93   88   90 1   
    94   88   94 1   
    95   88   95 1   
    96   89   96 1   
    97   89   97 1   
    98   89   98 1   
    99   90   99 1   
   100   90  100 1   
   101   90  101 1   
   102  102  103 1   
   103  102  110 1   
   104  103  104 1   
   105  103  106 1   
   106  103  111 1   
   107  104  105 2   
   108  104  114 1   
   109  106  107 1   
   110  106  112 1   
   111  106  113 1   
   112  107  108 1   
   113  107  109 1   
   114  114  115 1   
   115  114  125 1   
   116  115  116 1   
   117  115  118 1   
   118  115  126 1   
   119  116  117 2   
   120  116  134 1   
   121  118  119 1   
   122  118  127 1   
   123  118  128 1   
   124  119  120 ar  
   125  119  121 ar  
   126  120  122 ar  
   127  120  129 1   
   128  121  123 ar  
   129  121  130 1   
   130  122  124 ar  
   131  122  131 1   
   132  123  124 ar  
   133  123  132 1   
   134  124  133 1   
   135  134  135 1   
   136  134  140 1   
   137  135  136 1   
   138  135  138 1   
   139  135  141 1   
   140  136  137 2   
   141  136  148 1   
   142  138  139 1   
   143  138  142 1   
   144  138  143 1   
   145  139  140 1   
   146  139  144 1   
   147  139  145 1   
   148  140  146 1   
   149  140  147 1   
   150  148  149 1   
   151  148  157 1   
   152  149  150 1   
   153  149  152 1   
   154  149  158 1   
   155  150  151 2   
   156  150  163 1   
   157  152  153 1   
   158  152  159 1   
   159  152  160 1   
   160  153  154 1   
   161  153  161 1   
   162  153  162 1   
   163  154  155 1   
   164  154  156 1   
   165  163  164 1   
   166  163  168 1   
   167  164  165 1   
   168  164  166 1   
   169  164  167 1   
   170  170  171 1   
   171  170  172 1   
   172  173  174 1   
   173  173  175 1   
   174  176  177 1   
   175  176  178 1   
   176  179  180 1   
   177  179  181 1   
@<TRIPOS>SUBSTRUCTURE
     1 MOL         1 TEMP              0 ****  ****    0 ROOT
