@<TRIPOS>MOLECULE
MOL
  192   187     1     0     0
SMALL
resp


@<TRIPOS>ATOM
      1 C1          1.4080    8.4090   -1.9460 c3        1 MOL     -0.355138
      2 C2          1.4930    6.9180   -1.9460 c         1 MOL      0.745792
      3 O1          0.9970    6.2870   -2.8610 o         1 MOL     -0.625511
      4 H1          0.6740    8.7310   -2.6840 hc        1 MOL      0.085909
      5 H2          1.1070    8.7570   -0.9580 hc        1 MOL      0.085909
      6 H3          2.3820    8.8290   -2.1980 hc        1 MOL      0.085909
      7 N1          2.1510    6.2940   -1.0070 n         1 MOL     -0.617966
      8 C3          2.4650    4.8090   -0.7770 c3        1 MOL      0.248321
      9 C4          1.2310    3.8950   -0.4000 c         1 MOL      0.188445
     10 O2          1.3180    2.7060   -0.7210 o         1 MOL     -0.403968
     11 C5          3.4860    4.6010    0.3370 c3        1 MOL     -0.323290
     12 C6          3.1640    5.4580    1.5700 c         1 MOL      0.764910
     13 O3          2.6170    4.9590    2.5530 o         1 MOL     -0.751657
     14 O4          3.4170    6.6630    1.5040 o         1 MOL     -0.751657
     15 H4          2.4200    6.9750   -0.3120 hn        1 MOL      0.305662
     16 H5          2.8260    4.3780   -1.7110 h1        1 MOL      0.072252
     17 H6          4.5070    4.7640   -0.0070 hc        1 MOL      0.087965
     18 H7          3.5090    3.5450    0.5740 hc        1 MOL      0.087965
     19 N2          0.2460    4.4510    0.2060 n         1 MOL     -0.190388
     20 C7         -1.0050    3.7570    0.5580 c3        1 MOL      0.050608
     21 C8         -1.8200    3.5650   -0.7300 c         1 MOL      0.519579
     22 O5         -1.7470    4.3990   -1.6370 o         1 MOL     -0.528602
     23 C9         -1.8450    4.5160    1.5680 c3        1 MOL     -0.023854
     24 C10        -0.9920    4.7880    2.8100 c3        1 MOL      0.099322
     25 C11        -1.7310    5.2090    4.0600 c3        1 MOL     -0.205548
     26 C12        -0.8220    5.9160    5.1420 c3        1 MOL      0.186353
     27 N3         -1.4240    6.0470    6.4670 n4        1 MOL     -0.415833
     28 H8          0.2550    5.4550    0.2930 hn        1 MOL      0.251815
     29 H9         -0.7920    2.7640    0.9660 h1        1 MOL      0.084119
     30 H10        -2.8510    4.1130    1.6950 hc        1 MOL      0.023469
     31 H11        -2.0320    5.4760    1.0840 hc        1 MOL      0.023469
     32 H12        -0.2690    5.5530    2.5120 hc        1 MOL      0.013583
     33 H13        -0.3570    3.9450    3.0790 hc        1 MOL      0.013583
     34 H14        -2.1810    4.2940    4.4530 hc        1 MOL      0.065377
     35 H15        -2.5130    5.9020    3.7380 hc        1 MOL      0.065377
     36 H16        -0.4660    6.9120    4.8790 hx        1 MOL      0.059332
     37 H17         0.1000    5.3440    5.2750 hx        1 MOL      0.059332
     38 H18        -0.7090    6.2510    7.1500 hn        1 MOL      0.319436
     39 H19        -2.1640    6.7350    6.5420 hn        1 MOL      0.319436
     40 H20        -1.7410    5.0990    6.6090 hn        1 MOL      0.319436
     41 N4         -2.6620    2.5030   -0.9140 n         1 MOL     -0.579501
     42 C13        -2.8730    1.2630   -0.0940 c3        1 MOL      0.011874
     43 C14        -3.3970    1.4400    1.3720 c         1 MOL      0.491750
     44 O6         -2.7040    1.3020    2.3210 o         1 MOL     -0.571535
     45 C15        -1.6560    0.2770   -0.1930 c3        1 MOL     -0.199259
     46 C16        -1.2160   -0.1560   -1.5390 c         1 MOL      0.750773
     47 O7         -1.9000    0.0640   -2.5640 o         1 MOL     -0.746400
     48 O8         -0.1760   -0.8100   -1.6500 o         1 MOL     -0.746400
     49 H21        -3.0670    2.4760   -1.8330 hn        1 MOL      0.334003
     50 H22        -3.6710    0.6820   -0.5470 h1        1 MOL      0.115306
     51 H23        -1.8570   -0.6090    0.4150 hc        1 MOL      0.079562
     52 H24        -0.8000    0.7850    0.2380 hc        1 MOL      0.079562
     53 N5         -4.6340    1.7640    1.5870 n         1 MOL     -0.258209
     54 C17        -5.7640    2.0100    0.6690 c3        1 MOL     -0.097026
     55 C18        -7.1950    2.1850    1.3190 c         1 MOL      0.466556
     56 O9         -7.3330    2.1760    2.5820 o         1 MOL     -0.547344
     57 H25        -4.7590    1.9720    2.5740 hn        1 MOL      0.227719
     58 H26        -5.8890    1.1170    0.0630 h1        1 MOL      0.077703
     59 H27        -5.6290    2.8750    0.0220 h1        1 MOL      0.077703
     60 N6         -8.3130    2.0720    0.5670 n         1 MOL     -0.307551
     61 C19        -8.4060    1.9870   -0.8540 c3        1 MOL     -0.078033
     62 C20        -8.2940    0.5940   -1.4340 c         1 MOL      0.518801
     63 O10        -8.3980    0.3570   -2.6450 o         1 MOL     -0.524132
     64 C21        -9.5570    2.8710   -1.3410 c3        1 MOL     -0.217969
     65 C22       -10.8560    2.5510   -0.5570 c         1 MOL      0.748509
     66 O11       -11.8230    3.3450   -0.6320 o         1 MOL     -0.666486
     67 O12       -11.0690    1.4200   -0.0080 o         1 MOL     -0.666486
     68 H28        -9.1220    2.0810    1.1740 hn        1 MOL      0.242322
     69 H29        -7.5620    2.4470   -1.3660 h1        1 MOL      0.094978
     70 H30        -9.7580    2.6840   -2.3930 hc        1 MOL      0.068651
     71 H31        -9.3800    3.9400   -1.2080 hc        1 MOL      0.068651
     72 N7         -8.0780   -0.5000   -0.6540 n         1 MOL     -0.415238
     73 C23        -7.5020   -1.7780   -1.0940 c3        1 MOL      0.046937
     74 C24        -6.1410   -2.2120   -0.4300 c         1 MOL      0.547865
     75 O13        -5.4240   -1.4200    0.2540 o         1 MOL     -0.512999
     76 H32        -8.1740   -0.3570    0.3390 hn        1 MOL      0.292999
     77 H33        -7.3540   -1.7840   -2.1730 h1        1 MOL      0.054070
     78 H34        -8.1700   -2.5610   -0.7360 h1        1 MOL      0.054070
     79 N8         -5.9370   -3.5440   -0.4530 n         1 MOL     -0.538670
     80 C25        -5.1120   -4.2910    0.5370 c3        1 MOL      0.142426
     81 C26        -3.6300   -3.9870    0.6230 c         1 MOL      0.462084
     82 O14        -3.0940   -3.4160   -0.2820 o         1 MOL     -0.452431
     83 C27        -5.3380   -5.8750    0.5090 c3        1 MOL      0.322241
     84 C28        -4.9910   -6.6210   -0.7580 c3        1 MOL     -0.425410
     85 O15        -6.7440   -5.9430    0.5510 oh        1 MOL     -0.649086
     86 H35        -6.3980   -4.0740   -1.1820 hn        1 MOL      0.271220
     87 H36        -5.4730   -3.9380    1.5110 h1        1 MOL      0.089764
     88 H37        -4.9760   -6.4150    1.3830 h1        1 MOL      0.056713
     89 H38        -7.0010   -6.4500   -0.2260 ho        1 MOL      0.404742
     90 H39        -5.2980   -7.6600   -0.6520 hc        1 MOL      0.115549
     91 H40        -5.6240   -6.2490   -1.5600 hc        1 MOL      0.115549
     92 H41        -3.9210   -6.5450   -0.9520 hc        1 MOL      0.115549
     93 N9         -2.9830   -4.4230    1.7550 n         1 MOL     -0.568946
     94 C29        -1.5160   -4.0770    1.9470 c3        1 MOL      0.098570
     95 C30        -0.5550   -5.2530    1.4910 c         1 MOL      0.568523
     96 O16        -0.8570   -6.4310    1.6660 o         1 MOL     -0.527915
     97 C31        -1.3010   -3.6710    3.4570 c3        1 MOL     -0.083039
     98 C32        -2.2330   -2.4810    3.8580 c3        1 MOL      0.272418
     99 C33         0.1780   -3.3440    3.7980 c3        1 MOL     -0.263800
    100 C34        -2.0310   -2.1290    5.3400 c3        1 MOL     -0.430668
    101 H42        -3.4640   -5.0490    2.3950 hn        1 MOL      0.264552
    102 H43        -1.3070   -3.2110    1.3090 h1        1 MOL      0.021661
    103 H44        -1.5760   -4.5480    4.0460 hc        1 MOL      0.060333
    104 H45        -3.2900   -2.7020    3.6870 hc        1 MOL     -0.002089
    105 H46        -2.0320   -1.5550    3.3150 hc        1 MOL     -0.002089
    106 H47         0.2600   -3.4100    4.8870 hc        1 MOL      0.072572
    107 H48         0.8180   -4.0870    3.3180 hc        1 MOL      0.072572
    108 H49         0.4790   -2.3050    3.6390 hc        1 MOL      0.072572
    109 H50        -1.9690   -3.0090    5.9920 hc        1 MOL      0.096942
    110 H51        -1.1820   -1.4630    5.4810 hc        1 MOL      0.096942
    111 H52        -2.9390   -1.5720    5.5480 hc        1 MOL      0.096942
    112 N10         0.6060   -4.7620    0.8890 n         1 MOL     -0.300332
    113 C35         1.7300   -5.5820    0.3960 c3        1 MOL      0.033982
    114 C36         3.1230   -5.0100    0.6390 c         1 MOL      0.451997
    115 O17         4.0950   -5.7630    0.5280 o         1 MOL     -0.504766
    116 C37         1.6140   -5.9650   -1.0890 c3        1 MOL      0.362691
    117 C38         1.6710   -4.7070   -1.9770 c3        1 MOL     -0.364156
    118 O18         0.3890   -6.6620   -1.1460 oh        1 MOL     -0.602335
    119 H53         0.6360   -3.7620    0.7950 hn        1 MOL      0.200151
    120 H54         1.7470   -6.5530    0.9030 h1        1 MOL      0.055621
    121 H55         2.4350   -6.6450   -1.3040 h1        1 MOL     -0.003940
    122 H56         0.6040   -7.5900   -1.0650 ho        1 MOL      0.378225
    123 H57         0.9190   -4.7310   -2.7620 hc        1 MOL      0.117982
    124 H58         1.5380   -3.7350   -1.5000 hc        1 MOL      0.117982
    125 H59         2.6210   -4.7130   -2.4930 hc        1 MOL      0.117982
    126 N11         3.2750   -3.7360    1.0540 n         1 MOL     -0.573070
    127 C39         4.5950   -3.1420    1.4390 c3        1 MOL      0.027607
    128 C40         5.5620   -3.0380    0.2700 c         1 MOL      0.422144
    129 O19         5.4820   -3.7190   -0.7080 o         1 MOL     -0.374371
    130 C41         5.1480   -3.7830    2.6620 c3        1 MOL      0.292578
    131 C42         4.1320   -4.1920    3.7770 c3        1 MOL     -0.277326
    132 O20         6.0500   -2.9060    3.3320 oh        1 MOL     -0.687820
    133 H60         2.4370   -3.2100    1.2780 hn        1 MOL      0.331119
    134 H61         4.2930   -2.1570    1.8080 h1        1 MOL      0.095086
    135 H62         5.6480   -4.7260    2.4330 h1        1 MOL      0.048561
    136 H63         6.4390   -3.4300    4.0380 ho        1 MOL      0.412951
    137 H64         4.7220   -4.5340    4.6290 hc        1 MOL      0.069940
    138 H65         3.4300   -3.4450    4.1300 hc        1 MOL      0.069940
    139 H66         3.5430   -5.0260    3.4070 hc        1 MOL      0.069940
    140 N12         6.4300   -2.0870    0.4410 n         1 MOL     -0.354841
    141 C43         7.5430   -1.7770   -0.4370 c3        1 MOL      0.045152
    142 C44         7.2240   -0.6470   -1.4190 c         1 MOL      0.695560
    143 O21         8.0320   -0.4250   -2.3610 o         1 MOL     -0.609570
    144 C45         8.8180   -1.5310    0.3810 c3        1 MOL     -0.145015
    145 C46         8.6740   -0.2400    1.2140 c3        1 MOL     -0.142889
    146 C47         9.6200    0.0740    2.3860 c3        1 MOL      0.006826
    147 C48         9.4740    1.5130    2.9930 c3        1 MOL     -0.224663
    148 N13         8.0880    1.6540    3.5780 n4        1 MOL     -0.257175
    149 H67         6.2640   -1.4920    1.2480 hn        1 MOL      0.249176
    150 H68         7.5590   -2.7060   -0.9950 h1        1 MOL      0.095994
    151 H69         9.5830   -1.5280   -0.3950 hc        1 MOL      0.073042
    152 H70         8.9950   -2.4680    0.9310 hc        1 MOL      0.073042
    153 H71         7.6230   -0.1180    1.5100 hc        1 MOL      0.079081
    154 H72         8.8070    0.5990    0.5270 hc        1 MOL      0.079081
    155 H73        10.6420   -0.0830    2.0180 hc        1 MOL      0.045743
    156 H74         9.4410   -0.6310    3.2030 hc        1 MOL      0.045743
    157 H75         9.5930    2.1570    2.1240 hx        1 MOL      0.172040
    158 H76        10.3300    1.5810    3.6570 hx        1 MOL      0.172040
    159 H77         8.1080    2.4170    4.2420 hn        1 MOL      0.292213
    160 H78         7.3910    2.0100    2.9510 hn        1 MOL      0.292213
    161 H79         7.7850    0.8350    4.0800 hn        1 MOL      0.292213
    162 N14         6.1200    0.0240   -1.1490 n         1 MOL     -0.461842
    163 C49         5.6310    0.9000   -2.1950 c3        1 MOL     -0.072217
    164 C50         6.1340    2.3380   -2.0040 c         1 MOL      0.270674
    165 O22         6.1160    2.9250   -0.9080 o         1 MOL     -0.481361
    166 C51         4.0830    0.9390   -2.0620 c3        1 MOL      0.513766
    167 C52         3.3500   -0.4050   -1.9860 c3        1 MOL     -0.362438
    168 C53         3.3470   -1.2120   -3.3350 c         1 MOL      0.698205
    169 O23         2.4320   -0.9310   -4.0770 o         1 MOL     -0.731731
    170 O24         4.2000   -2.0330   -3.5840 o         1 MOL     -0.731731
    171 H80         5.4500   -0.1950   -0.4210 hn        1 MOL      0.213557
    172 H81         5.8720    0.5840   -3.2050 h1        1 MOL      0.155412
    173 H82         3.6070    1.4710   -2.8940 hc        1 MOL     -0.139803
    174 H83         3.7710    1.5340   -1.2060 hc        1 MOL     -0.139803
    175 H84         2.3380   -0.3690   -1.5800 hc        1 MOL      0.067625
    176 H85         3.7990   -1.0700   -1.2490 hc        1 MOL      0.067625
    177 N15         6.6340    2.9420   -3.0660 n         1 MOL     -0.127759
    178 C54         7.3090    4.2160   -3.1400 c3        1 MOL     -0.209809
    179 H86         7.7160    4.3530   -4.1410 h1        1 MOL      0.098817
    180 H87         6.6010    5.0160   -2.9230 h1        1 MOL      0.098817
    181 H88         8.1200    4.2410   -2.4120 h1        1 MOL      0.098817
    182 H89         6.4540    2.5290   -3.9720 hn        1 MOL      0.206524
    183 Ca1        -0.0300   -0.6580   -4.2440 Ca        1 MOL      1.783541
    184 O25        -2.2550   -1.1890   -5.4900 oh        1 MOL     -0.948482
    185 H90        -2.6610   -2.0550   -5.4690 ho        1 MOL      0.460974
    186 H91        -2.9070   -0.6310   -5.9140 ho        1 MOL      0.460974
    187 O26         1.0010    1.7600   -3.3730 oh        1 MOL     -0.948482
    188 H92         1.2880    2.0910   -2.5130 ho        1 MOL      0.460974
    189 H93         0.5310    2.4910   -3.7580 ho        1 MOL      0.460974
    190 O27        -0.7680   -3.1470   -4.0730 oh        1 MOL     -0.948482
    191 H94        -1.1630   -3.6950   -3.4010 ho        1 MOL      0.460974
    192 H95        -1.0030   -3.5670   -4.9090 ho        1 MOL      0.460974
@<TRIPOS>BOND
     1    1    2 1   
     2    1    4 1   
     3    1    5 1   
     4    1    6 1   
     5    2    3 2   
     6    2    7 1   
     7    7    8 1   
     8    7   15 1   
     9    8    9 1   
    10    8   11 1   
    11    8   16 1   
    12    9   10 2   
    13    9   19 1   
    14   11   12 1   
    15   11   17 1   
    16   11   18 1   
    17   12   13 1   
    18   12   14 1   
    19   19   20 1   
    20   19   28 1   
    21   20   21 1   
    22   20   23 1   
    23   20   29 1   
    24   21   22 2   
    25   21   41 1   
    26   23   24 1   
    27   23   30 1   
    28   23   31 1   
    29   24   25 1   
    30   24   32 1   
    31   24   33 1   
    32   25   26 1   
    33   25   34 1   
    34   25   35 1   
    35   26   27 1   
    36   26   36 1   
    37   26   37 1   
    38   27   38 1   
    39   27   39 1   
    40   27   40 1   
    41   41   42 1   
    42   41   49 1   
    43   42   43 1   
    44   42   45 1   
    45   42   50 1   
    46   43   44 2   
    47   43   53 1   
    48   45   46 1   
    49   45   51 1   
    50   45   52 1   
    51   46   47 1   
    52   46   48 1   
    53   53   54 1   
    54   53   57 1   
    55   54   55 1   
    56   54   58 1   
    57   54   59 1   
    58   55   56 2   
    59   55   60 1   
    60   60   61 1   
    61   60   68 1   
    62   61   62 1   
    63   61   64 1   
    64   61   69 1   
    65   62   63 2   
    66   62   72 1   
    67   64   65 1   
    68   64   70 1   
    69   64   71 1   
    70   65   66 1   
    71   65   67 1   
    72   72   73 1   
    73   72   76 1   
    74   73   74 1   
    75   73   77 1   
    76   73   78 1   
    77   74   75 2   
    78   74   79 1   
    79   79   80 1   
    80   79   86 1   
    81   80   81 1   
    82   80   83 1   
    83   80   87 1   
    84   81   82 2   
    85   81   93 1   
    86   83   84 1   
    87   83   85 1   
    88   83   88 1   
    89   84   90 1   
    90   84   91 1   
    91   84   92 1   
    92   85   89 1   
    93   93   94 1   
    94   93  101 1   
    95   94   95 1   
    96   94   97 1   
    97   94  102 1   
    98   95   96 2   
    99   95  112 1   
   100   97   98 1   
   101   97   99 1   
   102   97  103 1   
   103   98  100 1   
   104   98  104 1   
   105   98  105 1   
   106   99  106 1   
   107   99  107 1   
   108   99  108 1   
   109  100  109 1   
   110  100  110 1   
   111  100  111 1   
   112  112  113 1   
   113  112  119 1   
   114  113  114 1   
   115  113  116 1   
   116  113  120 1   
   117  114  115 2   
   118  114  126 1   
   119  116  117 1   
   120  116  118 1   
   121  116  121 1   
   122  117  123 1   
   123  117  124 1   
   124  117  125 1   
   125  118  122 1   
   126  126  127 1   
   127  126  133 1   
   128  127  128 1   
   129  127  130 1   
   130  127  134 1   
   131  128  129 2   
   132  128  140 1   
   133  130  131 1   
   134  130  132 1   
   135  130  135 1   
   136  131  137 1   
   137  131  138 1   
   138  131  139 1   
   139  132  136 1   
   140  140  141 1   
   141  140  149 1   
   142  141  142 1   
   143  141  144 1   
   144  141  150 1   
   145  142  143 2   
   146  142  162 1   
   147  144  145 1   
   148  144  151 1   
   149  144  152 1   
   150  145  146 1   
   151  145  153 1   
   152  145  154 1   
   153  146  147 1   
   154  146  155 1   
   155  146  156 1   
   156  147  148 1   
   157  147  157 1   
   158  147  158 1   
   159  148  159 1   
   160  148  160 1   
   161  148  161 1   
   162  162  163 1   
   163  162  171 1   
   164  163  164 1   
   165  163  166 1   
   166  163  172 1   
   167  164  165 2   
   168  164  177 1   
   169  166  167 1   
   170  166  173 1   
   171  166  174 1   
   172  167  168 1   
   173  167  175 1   
   174  167  176 1   
   175  168  169 1   
   176  168  170 1   
   177  177  178 1   
   178  177  182 1   
   179  178  179 1   
   180  178  180 1   
   181  178  181 1   
   182  184  185 1   
   183  184  186 1   
   184  187  188 1   
   185  187  189 1   
   186  190  191 1   
   187  190  192 1   
@<TRIPOS>SUBSTRUCTURE
     1 MOL         1 TEMP              0 ****  ****    0 ROOT
