@<TRIPOS>MOLECULE
MOL
  188   182     1     0     0
SMALL
resp


@<TRIPOS>ATOM
      1 C1          4.6330    1.4550    4.0590 c3        1 MOL     -0.347859
      2 C2          5.0600    1.2430    2.5620 c         1 MOL      0.655079
      3 O1          4.3100    0.7750    1.7330 o         1 MOL     -0.568995
      4 H1          3.5470    1.4130    4.1360 hc        1 MOL      0.091387
      5 H2          5.0700    0.6710    4.6770 hc        1 MOL      0.091387
      6 H3          4.9840    2.4270    4.4030 hc        1 MOL      0.091387
      7 N1          6.3230    1.6110    2.2970 n         1 MOL     -0.512812
      8 C3          7.0670    1.3280    1.0830 c3        1 MOL      0.036459
      9 C4          7.0700   -0.1940    0.7120 c         1 MOL      0.493466
     10 O2          7.0360   -0.5130   -0.4660 o         1 MOL     -0.433711
     11 C5          6.6390    2.2740   -0.0420 c3        1 MOL     -0.407830
     12 C6          7.6130    2.3900   -1.1980 c         1 MOL      0.771307
     13 O3          7.2230    2.5300   -2.3740 o         1 MOL     -0.663474
     14 O4          8.8340    2.3620   -0.9660 o         1 MOL     -0.663474
     15 H4          6.7610    2.1090    3.0650 hn        1 MOL      0.300712
     16 H5          8.1000    1.5650    1.3570 h1        1 MOL      0.007534
     17 H6          6.5990    3.2130    0.5040 hc        1 MOL      0.154937
     18 H7          5.5830    2.1620   -0.2950 hc        1 MOL      0.154937
     19 N2          6.9780   -1.0870    1.6970 n         1 MOL     -0.490284
     20 C7          7.3050   -2.5150    1.5380 c3        1 MOL      0.147872
     21 C8          6.0390   -3.3670    1.3820 c         1 MOL      0.430690
     22 O5          6.1160   -4.6300    1.3780 o         1 MOL     -0.552008
     23 C9          8.2270   -3.0510    2.6390 c3        1 MOL     -0.239263
     24 C10         9.4880   -2.2450    2.9570 c3        1 MOL      0.159094
     25 C11        10.4560   -1.8850    1.7930 c3        1 MOL     -0.115133
     26 C12        11.7010   -1.1780    2.3040 c3        1 MOL     -0.002822
     27 N3         11.4500   -0.2760    3.4340 n4        1 MOL     -0.214701
     28 H8          6.8500   -0.7170    2.6300 hn        1 MOL      0.259271
     29 H9          7.7530   -2.6440    0.5500 h1        1 MOL      0.087440
     30 H10         8.5950   -4.0640    2.4730 hc        1 MOL      0.092442
     31 H11         7.6190   -3.0600    3.5440 hc        1 MOL      0.092442
     32 H12        10.0670   -2.6570    3.7740 hc        1 MOL     -0.053338
     33 H13         9.2520   -1.3090    3.4580 hc        1 MOL     -0.053338
     34 H14         9.9670   -1.2730    1.0260 hc        1 MOL      0.090410
     35 H15        10.7730   -2.8010    1.3050 hc        1 MOL      0.090410
     36 H16        12.2320   -0.6540    1.5130 hx        1 MOL      0.093061
     37 H17        12.4220   -1.9220    2.6560 hx        1 MOL      0.093061
     38 H18        11.2770   -0.7840    4.2840 hn        1 MOL      0.256145
     39 H19        12.2650    0.2730    3.6610 hn        1 MOL      0.256145
     40 H20        10.6650    0.3470    3.4050 hn        1 MOL      0.256145
     41 N4          4.9060   -2.7390    1.1940 n         1 MOL     -0.259178
     42 C13         3.6930   -3.3730    0.7690 c3        1 MOL     -0.048915
     43 C14         3.7420   -3.6020   -0.7400 c         1 MOL      0.592153
     44 O6          4.4530   -2.9050   -1.4260 o         1 MOL     -0.422542
     45 C15         2.4540   -2.4850    1.0860 c3        1 MOL     -0.373592
     46 C16         1.0570   -2.8630    0.4670 c         1 MOL      1.053401
     47 O7          0.8210   -2.4720   -0.6520 o         1 MOL     -0.867275
     48 O8          0.1500   -3.3990    1.1310 o         1 MOL     -0.867275
     49 H21         4.9610   -1.7340    1.0790 hn        1 MOL      0.243199
     50 H22         3.6050   -4.3260    1.2840 h1        1 MOL      0.078169
     51 H23         2.7260   -1.4410    0.9300 hc        1 MOL      0.107960
     52 H24         2.3610   -2.5080    2.1760 hc        1 MOL      0.107960
     53 N5          3.0540   -4.6080   -1.2070 n         1 MOL     -0.422385
     54 C17         3.1350   -5.1430   -2.5530 c3        1 MOL      0.049213
     55 C18         3.0330   -4.0230   -3.6380 c         1 MOL      0.361547
     56 O9          3.8630   -3.9230   -4.5380 o         1 MOL     -0.486692
     57 H25         2.3900   -5.0220   -0.5730 hn        1 MOL      0.254697
     58 H26         2.4190   -5.9340   -2.7190 h1        1 MOL      0.065416
     59 H27         4.0930   -5.6340   -2.7120 h1        1 MOL      0.065416
     60 N6          2.2440   -2.9160   -3.3710 n         1 MOL     -0.285374
     61 C19         2.0710   -1.7070   -4.2100 c3        1 MOL      0.201423
     62 C20         2.3470   -0.4230   -3.4410 c         1 MOL      0.376930
     63 O10         2.3170    0.6850   -3.9630 o         1 MOL     -0.514102
     64 C21         0.7290   -1.5880   -4.9790 c3        1 MOL     -0.331740
     65 C22        -0.4750   -1.6960   -4.0540 c         1 MOL      0.606176
     66 N7         -1.4970   -0.8880   -4.4620 n         1 MOL     -0.769850
     67 O11        -0.5640   -2.4320   -3.0670 o         1 MOL     -0.512987
     68 H28         1.6920   -3.0290   -2.5400 hn        1 MOL      0.157101
     69 H29         2.8010   -1.7410   -5.0240 h1        1 MOL      0.085734
     70 H30         0.6520   -2.3990   -5.7020 hc        1 MOL      0.109785
     71 H31         0.7090   -0.6540   -5.5270 hc        1 MOL      0.109785
     72 H32        -1.3560   -0.3020   -5.2670 hn        1 MOL      0.354682
     73 H33        -2.4210   -0.7780   -4.0820 hn        1 MOL      0.354682
     74 N8          2.7040   -0.5760   -2.0970 n         1 MOL      0.020674
     75 C23         3.0600    0.5900   -1.2730 c3        1 MOL     -0.086243
     76 C24         1.8340    1.5160   -1.0000 c         1 MOL      0.616556
     77 O12         0.7400    1.4000   -1.5790 o         1 MOL     -0.543586
     78 H34         2.8290   -1.5220   -1.7740 hn        1 MOL     -0.068196
     79 H35         3.8910    1.1500   -1.6940 h1        1 MOL      0.099673
     80 H36         3.3990    0.1240   -0.3530 h1        1 MOL      0.099673
     81 N9          2.0210    2.4850   -0.0830 n         1 MOL     -0.532601
     82 C25         0.9720    3.5080    0.3230 c3        1 MOL      0.400537
     83 C26        -0.1640    2.8040    1.0890 c         1 MOL      0.196673
     84 O13         0.0380    1.9250    1.8830 o         1 MOL     -0.450549
     85 C27         1.6640    4.6080    1.1290 c3        1 MOL     -0.190283
     86 C28         2.7370    5.3560    0.2900 ca        1 MOL      0.117213
     87 C29         4.0550    4.9130    0.3530 ca        1 MOL     -0.291092
     88 C30         2.4630    6.5130   -0.5280 ca        1 MOL     -0.291092
     89 C31         5.0590    5.5580   -0.3390 ca        1 MOL     -0.094502
     90 C32         3.4640    7.0330   -1.3680 ca        1 MOL     -0.094502
     91 C33         4.8030    6.6320   -1.1820 ca        1 MOL      0.228066
     92 O14         5.8660    7.1090   -1.8400 oh        1 MOL     -0.454785
     93 H37         2.8340    2.3090    0.4900 hn        1 MOL      0.259380
     94 H38         0.6680    3.9390   -0.6310 h1        1 MOL      0.016964
     95 H39         2.1800    4.1550    1.9880 hc        1 MOL      0.081285
     96 H40         0.9320    5.2870    1.5820 hc        1 MOL      0.081285
     97 H41         4.4040    4.1380    1.0210 ha        1 MOL      0.134696
     98 H42         1.5050    7.0110   -0.4700 ha        1 MOL      0.134696
     99 H43         6.0810    5.2430   -0.2200 ha        1 MOL      0.097928
    100 H44         3.1740    7.7620   -2.1000 ha        1 MOL      0.097928
    101 H45         5.6390    7.7640   -2.5110 ho        1 MOL      0.379025
    102 N10        -1.4120    3.2620    0.9370 n         1 MOL     -0.398495
    103 C34        -2.6530    2.6550    1.3930 c3        1 MOL     -0.015970
    104 C35        -3.7630    2.5770    0.2880 c         1 MOL      0.217916
    105 O15        -4.5120    1.5700    0.2360 o         1 MOL     -0.473296
    106 C36        -3.2470    3.3500    2.6140 c3        1 MOL      0.119515
    107 C37        -2.2610    3.2150    3.8360 c3        1 MOL      0.112269
    108 C38        -4.7210    2.8280    2.8880 c3        1 MOL     -0.301474
    109 C39        -2.7570    3.7790    5.1740 c3        1 MOL     -0.396635
    110 H46        -1.4300    3.9630    0.2150 hn        1 MOL      0.210276
    111 H47        -2.5100    1.6190    1.6840 h1        1 MOL      0.121846
    112 H48        -3.2660    4.4130    2.3790 hc        1 MOL     -0.011265
    113 H49        -1.3990    3.8670    3.6660 hc        1 MOL      0.041763
    114 H50        -1.9920    2.1670    3.9500 hc        1 MOL      0.041763
    115 H51        -5.1130    3.2260    3.8270 hc        1 MOL      0.072243
    116 H52        -5.3800    3.1710    2.0840 hc        1 MOL      0.072243
    117 H53        -4.8620    1.7520    2.7830 hc        1 MOL      0.072243
    118 H54        -3.6320    3.1770    5.4380 hc        1 MOL      0.098919
    119 H55        -2.0260    3.6050    5.9550 hc        1 MOL      0.098919
    120 H56        -3.1050    4.8080    5.0900 hc        1 MOL      0.098919
    121 N11        -3.7720    3.5830   -0.5460 n         1 MOL     -0.001644
    122 C40        -4.5590    3.5040   -1.7910 c3        1 MOL     -0.484712
    123 C41        -6.1270    3.4930   -1.5730 c         1 MOL      0.622987
    124 O16        -6.8700    3.1650   -2.5350 o         1 MOL     -0.509995
    125 C42        -4.2180    4.6480   -2.7740 c3        1 MOL      0.225759
    126 O17        -4.3230    5.9350   -2.1490 oh        1 MOL     -0.627968
    127 H57        -3.3520    4.4840   -0.3800 hn        1 MOL      0.239473
    128 H58        -4.2680    2.5460   -2.2160 h1        1 MOL      0.202251
    129 H59        -4.8860    4.6820   -3.6320 h1        1 MOL      0.058260
    130 H60        -3.2260    4.5760   -3.2240 h1        1 MOL      0.058260
    131 H61        -3.8590    6.5680   -2.7030 ho        1 MOL      0.415752
    132 N12        -6.7240    3.7260   -0.3480 n         1 MOL     -0.294061
    133 C43        -8.1190    3.5300    0.0430 c3        1 MOL      0.047597
    134 C44        -8.7270    2.1480   -0.1730 c         1 MOL      0.488145
    135 O18        -9.9660    2.0010   -0.2920 o         1 MOL     -0.510444
    136 C45        -9.0390    4.5740   -0.5100 c3        1 MOL     -0.160072
    137 H62        -6.1900    4.2770    0.3180 hn        1 MOL      0.227839
    138 H63        -8.2050    3.7400    1.1060 h1        1 MOL      0.088722
    139 H64        -8.7120    5.5960   -0.2790 hc        1 MOL      0.055564
    140 H65        -9.0580    4.6020   -1.6000 hc        1 MOL      0.055564
    141 H66       -10.0590    4.4650   -0.1580 hc        1 MOL      0.055564
    142 N13        -7.9290    1.0800   -0.1600 n         1 MOL     -0.529320
    143 C46        -8.2640   -0.2830   -0.2980 c3        1 MOL      0.501003
    144 C47        -7.6390   -1.1780    0.7360 c         1 MOL      0.370447
    145 O19        -6.8580   -0.7270    1.5580 o         1 MOL     -0.436526
    146 C48        -7.9610   -0.7050   -1.7280 c3        1 MOL     -0.331913
    147 H67        -6.9400    1.2190   -0.0230 hn        1 MOL      0.239953
    148 H68        -9.3380   -0.3050   -0.1010 h1        1 MOL     -0.028448
    149 H69        -6.8830   -0.7110   -1.9080 hc        1 MOL      0.083839
    150 H70        -8.4450   -1.6750   -1.8630 hc        1 MOL      0.083839
    151 H71        -8.4030   -0.0000   -2.4290 hc        1 MOL      0.083839
    152 N14        -7.9810   -2.5160    0.6450 n         1 MOL     -0.652855
    153 C49        -7.7700   -3.5800    1.5660 c3        1 MOL     -0.173580
    154 C50        -8.3180   -3.4120    2.9790 c         1 MOL      0.520217
    155 O20        -8.5550   -4.3680    3.7330 o         1 MOL     -0.505995
    156 C51        -6.3020   -4.0120    1.5980 c3        1 MOL      0.163121
    157 C52        -5.7610   -4.1410    0.1360 c3        1 MOL     -0.173866
    158 C53        -4.5590   -5.0340    0.2100 c         1 MOL      0.583987
    159 O21        -3.4090   -4.5390    0.2670 o         1 MOL     -0.661423
    160 O22        -4.7900   -6.2700    0.2250 o         1 MOL     -0.661423
    161 H72        -8.5150   -2.8620   -0.1400 hn        1 MOL      0.404012
    162 H73        -8.2690   -4.4280    1.0990 h1        1 MOL      0.134404
    163 H74        -6.3130   -4.9170    2.2170 hc        1 MOL      0.025657
    164 H75        -5.6610   -3.3630    2.1880 hc        1 MOL      0.025657
    165 H76        -5.6390   -3.1410   -0.2750 hc        1 MOL      0.009015
    166 H77        -6.4520   -4.4980   -0.6340 hc        1 MOL      0.009015
    167 N15        -8.4580   -2.1050    3.5310 n         1 MOL     -0.275374
    168 C54        -8.6850   -1.8290    4.9230 c3        1 MOL     -0.268052
    169 H78        -8.7340   -0.7510    5.0750 h1        1 MOL      0.112006
    170 H79        -9.6250   -2.2830    5.2350 h1        1 MOL      0.112006
    171 H80        -7.8670   -2.2410    5.5130 h1        1 MOL      0.112006
    172 H81        -8.1900   -1.3240    2.9560 hn        1 MOL      0.253861
    173 Ca1        -1.6740   -2.9680   -0.6360 Ca        1 MOL      1.739311
    174 O23        -2.5410   -1.6990    1.5730 oh        1 MOL     -0.828329
    175 H82        -3.3820   -1.8080    2.0030 ho        1 MOL      0.416616
    176 H83        -2.0060   -1.2220    2.2020 ho        1 MOL      0.416616
    177 O24        -3.4320   -3.9020   -2.4440 oh        1 MOL     -0.828329
    178 H84        -3.4310   -4.8560   -2.4320 ho        1 MOL      0.416616
    179 H85        -4.1880   -3.6720   -2.9680 ho        1 MOL      0.416616
    180 O25        -3.9330   -1.1660   -1.1470 oh        1 MOL     -0.828329
    181 H86        -4.1050   -0.4700   -0.5110 ho        1 MOL      0.416616
    182 H87        -4.7140   -1.1710   -1.7050 ho        1 MOL      0.416616
    183 O26        -1.2930   -0.2300   -0.7550 oh        1 MOL     -0.828329
    184 H88        -0.4920    0.2410   -0.9640 ho        1 MOL      0.416616
    185 H89        -1.9120    0.4590   -0.5060 ho        1 MOL      0.416616
    186 O27        -0.8570   -5.3150   -1.3740 oh        1 MOL     -0.828329
    187 H90        -0.4100   -5.4550   -2.2090 ho        1 MOL      0.416616
    188 H91        -0.3980   -5.8850   -0.7530 ho        1 MOL      0.416616
@<TRIPOS>BOND
     1    1    2 1   
     2    1    4 1   
     3    1    5 1   
     4    1    6 1   
     5    2    3 2   
     6    2    7 1   
     7    7    8 1   
     8    7   15 1   
     9    8    9 1   
    10    8   11 1   
    11    8   16 1   
    12    9   10 2   
    13    9   19 1   
    14   11   12 1   
    15   11   17 1   
    16   11   18 1   
    17   12   13 1   
    18   12   14 1   
    19   19   20 1   
    20   19   28 1   
    21   20   21 1   
    22   20   23 1   
    23   20   29 1   
    24   21   22 2   
    25   21   41 1   
    26   23   24 1   
    27   23   30 1   
    28   23   31 1   
    29   24   25 1   
    30   24   32 1   
    31   24   33 1   
    32   25   26 1   
    33   25   34 1   
    34   25   35 1   
    35   26   27 1   
    36   26   36 1   
    37   26   37 1   
    38   27   38 1   
    39   27   39 1   
    40   27   40 1   
    41   41   42 1   
    42   41   49 1   
    43   42   43 1   
    44   42   45 1   
    45   42   50 1   
    46   43   44 2   
    47   43   53 1   
    48   45   46 1   
    49   45   51 1   
    50   45   52 1   
    51   46   47 1   
    52   46   48 1   
    53   53   54 1   
    54   53   57 1   
    55   54   55 1   
    56   54   58 1   
    57   54   59 1   
    58   55   56 2   
    59   55   60 1   
    60   60   61 1   
    61   60   68 1   
    62   61   62 1   
    63   61   64 1   
    64   61   69 1   
    65   62   63 2   
    66   62   74 1   
    67   64   65 1   
    68   64   70 1   
    69   64   71 1   
    70   65   66 1   
    71   65   67 2   
    72   66   72 1   
    73   66   73 1   
    74   74   75 1   
    75   74   78 1   
    76   75   76 1   
    77   75   79 1   
    78   75   80 1   
    79   76   77 2   
    80   76   81 1   
    81   81   82 1   
    82   81   93 1   
    83   82   83 1   
    84   82   85 1   
    85   82   94 1   
    86   83   84 2   
    87   83  102 1   
    88   85   86 1   
    89   85   95 1   
    90   85   96 1   
    91   86   87 ar  
    92   86   88 ar  
    93   87   89 ar  
    94   87   97 1   
    95   88   90 ar  
    96   88   98 1   
    97   89   91 ar  
    98   89   99 1   
    99   90   91 ar  
   100   90  100 1   
   101   91   92 1   
   102   92  101 1   
   103  102  103 1   
   104  102  110 1   
   105  103  104 1   
   106  103  106 1   
   107  103  111 1   
   108  104  105 2   
   109  104  121 1   
   110  106  107 1   
   111  106  108 1   
   112  106  112 1   
   113  107  109 1   
   114  107  113 1   
   115  107  114 1   
   116  108  115 1   
   117  108  116 1   
   118  108  117 1   
   119  109  118 1   
   120  109  119 1   
   121  109  120 1   
   122  121  122 1   
   123  121  127 1   
   124  122  123 1   
   125  122  125 1   
   126  122  128 1   
   127  123  124 2   
   128  123  132 1   
   129  125  126 1   
   130  125  129 1   
   131  125  130 1   
   132  126  131 1   
   133  132  133 1   
   134  132  137 1   
   135  133  134 1   
   136  133  136 1   
   137  133  138 1   
   138  134  135 2   
   139  134  142 1   
   140  136  139 1   
   141  136  140 1   
   142  136  141 1   
   143  142  143 1   
   144  142  147 1   
   145  143  144 1   
   146  143  146 1   
   147  143  148 1   
   148  144  145 2   
   149  144  152 1   
   150  146  149 1   
   151  146  150 1   
   152  146  151 1   
   153  152  153 1   
   154  152  161 1   
   155  153  154 1   
   156  153  156 1   
   157  153  162 1   
   158  154  155 2   
   159  154  167 1   
   160  156  157 1   
   161  156  163 1   
   162  156  164 1   
   163  157  158 1   
   164  157  165 1   
   165  157  166 1   
   166  158  159 1   
   167  158  160 1   
   168  167  168 1   
   169  167  172 1   
   170  168  169 1   
   171  168  170 1   
   172  168  171 1   
   173  174  175 1   
   174  174  176 1   
   175  177  178 1   
   176  177  179 1   
   177  180  181 1   
   178  180  182 1   
   179  183  184 1   
   180  183  185 1   
   181  186  187 1   
   182  186  188 1   
@<TRIPOS>SUBSTRUCTURE
     1 MOL         1 TEMP              0 ****  ****    0 ROOT
