@<TRIPOS>MOLECULE
MOL
  189   185     1     0     0
SMALL
resp


@<TRIPOS>ATOM
      1 C1          3.6120    3.9860   -3.5030 c3        1 MOL     -0.414886
      2 C2          4.5920    3.2350   -2.4870 c         1 MOL      0.793084
      3 O1          4.3540    3.0140   -1.2980 o         1 MOL     -0.678572
      4 H1          3.8530    5.0490   -3.5220 hc        1 MOL      0.106052
      5 H2          3.7350    3.5690   -4.5030 hc        1 MOL      0.106052
      6 H3          2.5790    3.8540   -3.1790 hc        1 MOL      0.106052
      7 N1          5.7390    2.8310   -3.0370 n         1 MOL     -0.628694
      8 C3          6.6510    1.7880   -2.4650 c3        1 MOL      0.121322
      9 C4          5.8770    0.6370   -1.8740 c         1 MOL      0.566575
     10 O2          5.5870    0.5060   -0.6880 o         1 MOL     -0.675665
     11 C5          7.7620    2.3610   -1.5760 c3        1 MOL     -0.135355
     12 C6          7.3420    3.5060   -0.6700 c         1 MOL      0.754415
     13 O3          6.7560    3.2790    0.4120 o         1 MOL     -0.720618
     14 O4          7.7060    4.6510   -0.9420 o         1 MOL     -0.720618
     15 H4          5.6780    2.7930   -4.0460 hn        1 MOL      0.299313
     16 H5          7.2290    1.4400   -3.3220 h1        1 MOL      0.043782
     17 H6          8.5520    2.7990   -2.1900 hc        1 MOL      0.025167
     18 H7          8.2470    1.5600   -1.0140 hc        1 MOL      0.025167
     19 N2          5.5630   -0.2110   -2.7940 n         1 MOL     -0.468676
     20 C7          5.0130   -1.5490   -2.6990 c3        1 MOL      0.262430
     21 C8          5.8820   -2.5810   -1.9850 c         1 MOL      0.343442
     22 O5          6.3860   -3.4640   -2.6570 o         1 MOL     -0.552031
     23 C9          3.5120   -1.6230   -2.2450 c3        1 MOL      0.209749
     24 C10         2.7420   -2.9460   -2.3860 c3        1 MOL      0.128488
     25 C11         2.7030   -0.5560   -3.0960 c3        1 MOL     -0.435984
     26 C12         2.7750   -3.4880   -3.8140 c3        1 MOL     -0.214993
     27 H8          5.7190    0.0630   -3.7560 hn        1 MOL      0.257559
     28 H9          4.9460   -1.8660   -3.7410 h1        1 MOL     -0.021689
     29 H10         3.3720   -1.1980   -1.2460 hc        1 MOL     -0.066077
     30 H11         1.7070   -2.8890   -2.0600 hc        1 MOL     -0.045022
     31 H12         3.2330   -3.6380   -1.6940 hc        1 MOL     -0.045022
     32 H13         1.6430   -0.8150   -3.1160 hc        1 MOL      0.082351
     33 H14         2.9650    0.4030   -2.6480 hc        1 MOL      0.082351
     34 H15         3.0830   -0.6010   -4.1170 hc        1 MOL      0.082351
     35 H16         2.3170   -4.4770   -3.8870 hc        1 MOL      0.040585
     36 H17         2.3590   -2.7920   -4.5450 hc        1 MOL      0.040585
     37 H18         3.7900   -3.7640   -4.1000 hc        1 MOL      0.040585
     38 N3          5.9100   -2.6290   -0.6320 n         1 MOL     -0.108042
     39 C13         6.7810   -3.6080    0.0760 c3        1 MOL      0.000050
     40 C14         5.9740   -4.7050    0.8240 c         1 MOL      0.572019
     41 O6          6.5230   -5.7940    0.9320 o         1 MOL     -0.598504
     42 C15         7.7900   -2.8960    0.9740 c3        1 MOL     -0.143987
     43 C16         8.4890   -1.7870    0.1590 c         1 MOL      0.699145
     44 O7          8.7340   -0.7150    0.7440 o         1 MOL     -0.702091
     45 O8          8.9640   -2.0190   -0.9920 o         1 MOL     -0.702091
     46 H19         5.4940   -1.9200   -0.0460 hn        1 MOL      0.249279
     47 H20         7.4730   -4.1870   -0.5380 h1        1 MOL      0.078940
     48 H21         8.5880   -3.5460    1.3400 hc        1 MOL      0.029638
     49 H22         7.2660   -2.4380    1.8130 hc        1 MOL      0.029638
     50 N4          4.7840   -4.6270    1.3900 n         1 MOL     -0.603660
     51 C17         4.0170   -3.4670    1.7990 c3        1 MOL      0.160475
     52 C18         4.5440   -2.7560    3.0790 c         1 MOL      0.439645
     53 O9          5.6040   -3.1270    3.5880 o         1 MOL     -0.514120
     54 H23         4.6090   -5.4310    1.9830 hn        1 MOL      0.315427
     55 H24         2.9700   -3.7330    1.9420 h1        1 MOL      0.040359
     56 H25         4.0440   -2.6900    1.0320 h1        1 MOL      0.040359
     57 N5          3.7670   -1.7940    3.6230 n         1 MOL     -0.445624
     58 C19         2.4830   -1.3310    3.0610 c3        1 MOL      0.057726
     59 C20         2.5140   -0.8250    1.5980 c         1 MOL      0.094469
     60 O10         3.5860   -0.3490    1.1070 o         1 MOL     -0.337486
     61 C21         1.9150   -0.1860    3.9900 c3        1 MOL     -0.375586
     62 C22         2.8360    0.9610    4.1900 c         1 MOL      0.837595
     63 O11         3.3620    1.0670    5.3040 o         1 MOL     -0.728470
     64 O12         3.0700    1.7210    3.2570 o         1 MOL     -0.728470
     65 H26         4.0570   -1.4190    4.5170 hn        1 MOL      0.316395
     66 H27         1.7640   -2.1470    3.1310 h1        1 MOL      0.087114
     67 H28         1.4770   -0.5220    4.9260 hc        1 MOL      0.100995
     68 H29         1.0590    0.2950    3.5190 hc        1 MOL      0.100995
     69 N6          1.3680   -0.6640    0.9190 n         1 MOL     -0.204414
     70 C23         0.0150   -1.1580    1.2190 c3        1 MOL     -0.089228
     71 C24        -0.1160   -2.6660    1.0040 c         1 MOL      0.469799
     72 O13         0.8560   -3.4260    0.9750 o         1 MOL     -0.499540
     73 H30         1.4360   -0.1350    0.0610 hn        1 MOL      0.274984
     74 H31        -0.7200   -0.4550    0.8190 h1        1 MOL      0.082476
     75 H32        -0.1150   -0.9900    2.2880 h1        1 MOL      0.082476
     76 N7         -1.3370   -3.0550    0.9370 n         1 MOL     -0.293507
     77 C25        -1.8820   -4.3950    0.5890 c3        1 MOL      0.040711
     78 C26        -2.7070   -4.4880   -0.6790 c         1 MOL      0.522066
     79 O14        -2.8870   -5.6020   -1.2100 o         1 MOL     -0.546441
     80 C27        -2.5380   -5.0760    1.8030 c3        1 MOL     -0.168215
     81 C28        -3.8690   -4.5390    2.3930 c3        1 MOL     -0.262865
     82 C29        -4.9290   -4.2480    1.3860 c         1 MOL      0.630722
     83 N8         -5.7590   -5.1750    0.8860 n         1 MOL     -0.859961
     84 O15        -5.0450   -3.1410    0.9120 o         1 MOL     -0.539057
     85 H33        -2.0520   -2.3550    1.0680 hn        1 MOL      0.222646
     86 H34        -1.0460   -5.0330    0.3080 h1        1 MOL      0.101865
     87 H35        -1.8630   -4.8060    2.6110 hc        1 MOL      0.081600
     88 H36        -2.5350   -6.1630    1.6680 hc        1 MOL      0.081600
     89 H37        -3.5940   -3.5420    2.7470 hc        1 MOL      0.117061
     90 H38        -4.2570   -5.0990    3.2420 hc        1 MOL      0.117061
     91 H39        -5.6680   -6.1130    1.2190 hn        1 MOL      0.383447
     92 H40        -6.2310   -5.0470    0.0070 hn        1 MOL      0.383447
     93 N9         -3.1970   -3.3680   -1.2950 n         1 MOL     -0.260295
     94 C30        -3.5710   -3.2190   -2.7670 c3        1 MOL     -0.212213
     95 C31        -4.9740   -2.6420   -3.0100 c         1 MOL      0.467719
     96 O16        -5.4240   -2.4970   -4.1360 o         1 MOL     -0.553215
     97 C32        -2.4420   -2.3820   -3.5050 c3        1 MOL      0.274975
     98 C33        -1.0660   -2.9130   -3.3490 c3        1 MOL     -0.245867
     99 C34        -2.4860   -0.9220   -3.1180 c3        1 MOL     -0.245867
    100 H41        -2.9000   -2.5130   -0.8530 hn        1 MOL      0.162361
    101 H42        -3.6200   -4.2020   -3.2390 h1        1 MOL      0.139712
    102 H43        -2.7540   -2.4820   -4.5530 hc        1 MOL     -0.005478
    103 H44        -0.4700   -2.3470   -4.0600 hc        1 MOL      0.064178
    104 H45        -0.7930   -2.6220   -2.3250 hc        1 MOL      0.064178
    105 H46        -1.0090   -3.9900   -3.4520 hc        1 MOL      0.064178
    106 H47        -3.4430   -0.4550   -3.3670 hc        1 MOL      0.064178
    107 H48        -2.2540   -0.7910   -2.0690 hc        1 MOL      0.064178
    108 H49        -1.7800   -0.3310   -3.7140 hc        1 MOL      0.064178
    109 N10        -5.5870   -2.2150   -1.9570 n         1 MOL     -0.274547
    110 C35        -7.0030   -1.7180   -1.9400 c3        1 MOL      0.086382
    111 C36        -7.2160   -0.2520   -1.3810 c         1 MOL      0.455359
    112 O17        -8.3610    0.2020   -1.5170 o         1 MOL     -0.515286
    113 C37        -7.8660   -2.6880   -1.0760 c3        1 MOL     -0.339541
    114 C38        -8.1910   -4.0340   -1.8030 c         1 MOL      0.610648
    115 N11        -8.4110   -4.1050   -3.1230 n         1 MOL     -0.712072
    116 O18        -8.1690   -5.1160   -1.2360 o         1 MOL     -0.537567
    117 H50        -5.2060   -2.5040   -1.0620 hn        1 MOL      0.322717
    118 H51        -7.3980   -1.7080   -2.9550 h1        1 MOL      0.066740
    119 H52        -8.7890   -2.1670   -0.8010 hc        1 MOL      0.115662
    120 H53        -7.3970   -2.9400   -0.1290 hc        1 MOL      0.115662
    121 H54        -8.3310   -3.3390   -3.7750 hn        1 MOL      0.340098
    122 H55        -8.9280   -4.8930   -3.4840 hn        1 MOL      0.340098
    123 N12        -6.2120    0.3880   -0.6570 n         1 MOL     -0.404322
    124 C39        -6.3520    1.7310   -0.0550 c3        1 MOL      0.312989
    125 C40        -5.0920    2.6020    0.0750 c         1 MOL      0.171529
    126 O19        -3.9880    2.1460    0.3810 o         1 MOL     -0.321736
    127 C41        -7.0770    1.5820    1.3400 c3        1 MOL     -0.072840
    128 C42        -6.4800    0.5510    2.3580 ca        1 MOL      0.234001
    129 C43        -7.2910   -0.5840    2.6080 ca        1 MOL     -0.346001
    130 C44        -5.2110    0.6550    2.9440 ca        1 MOL     -0.346001
    131 C45        -6.8490   -1.6110    3.4420 ca        1 MOL     -0.090708
    132 C46        -4.7310   -0.3990    3.7470 ca        1 MOL     -0.090708
    133 C47        -5.5380   -1.5090    3.9650 ca        1 MOL      0.177909
    134 O20        -5.0670   -2.5520    4.7480 oh        1 MOL     -0.460789
    135 H56        -5.3320   -0.1120   -0.6310 hn        1 MOL      0.159006
    136 H57        -7.0200    2.2790   -0.7240 h1        1 MOL      0.011797
    137 H58        -8.1240    1.3490    1.1590 hc        1 MOL      0.018958
    138 H59        -7.0690    2.5350    1.8770 hc        1 MOL      0.018958
    139 H60        -8.2180   -0.6340    2.0650 ha        1 MOL      0.186964
    140 H61        -4.6720    1.5730    2.7670 ha        1 MOL      0.186964
    141 H62        -7.5220   -2.4270    3.6860 ha        1 MOL      0.112970
    142 H63        -3.7660   -0.4780    4.2310 ha        1 MOL      0.112970
    143 H64        -5.8380   -3.0720    4.9950 ho        1 MOL      0.322266
    144 N13        -5.2640    3.9190    0.0280 n         1 MOL     -0.378450
    145 C48        -4.3510    5.0240    0.3720 c3        1 MOL      0.105433
    146 C49        -2.9940    5.1200   -0.3840 c         1 MOL      0.375654
    147 O21        -2.5660    6.2530   -0.5910 o         1 MOL     -0.513153
    148 C50        -3.9460    5.0740    1.8240 c3        1 MOL     -0.044822
    149 C51        -5.0730    5.1650    2.8810 c3        1 MOL     -0.242182
    150 C52        -6.0560    6.3360    2.6250 c         1 MOL      0.759935
    151 O22        -7.2300    6.1520    2.9900 o         1 MOL     -0.743859
    152 O23        -5.6890    7.4020    2.0910 o         1 MOL     -0.743859
    153 H65        -6.1710    4.1640   -0.3360 hn        1 MOL      0.283889
    154 H66        -4.8560    5.9690    0.1740 h1        1 MOL      0.072718
    155 H67        -3.4140    6.0090    1.9720 hc        1 MOL      0.057635
    156 H68        -3.2940    4.2230    1.9920 hc        1 MOL      0.057635
    157 H69        -4.6940    5.2450    3.9000 hc        1 MOL      0.042602
    158 H70        -5.5830    4.2040    2.8090 hc        1 MOL      0.042602
    159 N14        -2.3200    4.0580   -0.7750 n         1 MOL     -0.139286
    160 C53        -1.2310    4.0570   -1.7270 c3        1 MOL     -0.242071
    161 C54        -1.7020    4.4870   -3.1560 c         1 MOL      0.662097
    162 O24        -0.8930    4.6770   -4.0560 o         1 MOL     -0.551270
    163 C55        -0.7630    2.5600   -1.7740 c3        1 MOL     -0.138536
    164 C56        -0.1170    2.0610   -0.4910 c3        1 MOL      0.272418
    165 C57         1.1360    2.7340    0.0110 c         1 MOL      0.606029
    166 O25         1.0850    3.9270    0.4300 o         1 MOL     -0.640180
    167 O26         2.1110    2.0310    0.3480 o         1 MOL     -0.640180
    168 H71        -2.5540    3.1840   -0.3230 hn        1 MOL      0.111925
    169 H72        -0.4990    4.7770   -1.3600 h1        1 MOL      0.151276
    170 H73        -0.0790    2.4790   -2.6170 hc        1 MOL      0.022534
    171 H74        -1.6260    1.9090   -1.9000 hc        1 MOL      0.022534
    172 H75         0.1080    1.0100   -0.6900 hc        1 MOL     -0.077280
    173 H76        -0.8450    2.0940    0.3150 hc        1 MOL     -0.077280
    174 N15        -3.0330    4.5830   -3.4010 n         1 MOL     -0.366392
    175 C58        -3.7960    5.2850   -4.4020 c3        1 MOL     -0.213962
    176 H77        -3.5580    6.3480   -4.3600 h1        1 MOL      0.097773
    177 H78        -3.5480    4.8960   -5.3890 h1        1 MOL      0.097773
    178 H79        -4.8610    5.1450   -4.2120 h1        1 MOL      0.097773
    179 H80        -3.6390    4.5450   -2.6000 hn        1 MOL      0.229998
    180 Ca1         4.5750    2.1880    1.1080 Ca        1 MOL      1.777283
    181 O27         3.5130    4.7180    1.0660 oh        1 MOL     -0.809054
    182 H81         2.5950    4.5660    0.8440 ho        1 MOL      0.378760
    183 H82         3.8040    5.3710    0.4270 ho        1 MOL      0.378760
    184 O28         6.3870    0.7680    2.5830 oh        1 MOL     -0.809054
    185 H83         7.2140    0.5580    2.1340 ho        1 MOL      0.378760
    186 H84         6.3450    0.1490    3.3070 ho        1 MOL      0.378760
    187 O29         5.7490    3.6530    3.1860 oh        1 MOL     -0.809054
    188 H85         5.5180    3.1540    3.9710 ho        1 MOL      0.378760
    189 H86         6.6910    3.5210    3.0820 ho        1 MOL      0.378760
@<TRIPOS>BOND
     1    1    2 1   
     2    1    4 1   
     3    1    5 1   
     4    1    6 1   
     5    2    3 2   
     6    2    7 1   
     7    7    8 1   
     8    7   15 1   
     9    8    9 1   
    10    8   11 1   
    11    8   16 1   
    12    9   10 2   
    13    9   19 1   
    14   11   12 1   
    15   11   17 1   
    16   11   18 1   
    17   12   13 1   
    18   12   14 1   
    19   19   20 1   
    20   19   27 1   
    21   20   21 1   
    22   20   23 1   
    23   20   28 1   
    24   21   22 2   
    25   21   38 1   
    26   23   24 1   
    27   23   25 1   
    28   23   29 1   
    29   24   26 1   
    30   24   30 1   
    31   24   31 1   
    32   25   32 1   
    33   25   33 1   
    34   25   34 1   
    35   26   35 1   
    36   26   36 1   
    37   26   37 1   
    38   38   39 1   
    39   38   46 1   
    40   39   40 1   
    41   39   42 1   
    42   39   47 1   
    43   40   41 2   
    44   40   50 1   
    45   42   43 1   
    46   42   48 1   
    47   42   49 1   
    48   43   44 1   
    49   43   45 1   
    50   50   51 1   
    51   50   54 1   
    52   51   52 1   
    53   51   55 1   
    54   51   56 1   
    55   52   53 2   
    56   52   57 1   
    57   57   58 1   
    58   57   65 1   
    59   58   59 1   
    60   58   61 1   
    61   58   66 1   
    62   59   60 2   
    63   59   69 1   
    64   61   62 1   
    65   61   67 1   
    66   61   68 1   
    67   62   63 1   
    68   62   64 1   
    69   69   70 1   
    70   69   73 1   
    71   70   71 1   
    72   70   74 1   
    73   70   75 1   
    74   71   72 2   
    75   71   76 1   
    76   76   77 1   
    77   76   85 1   
    78   77   78 1   
    79   77   80 1   
    80   77   86 1   
    81   78   79 2   
    82   78   93 1   
    83   80   81 1   
    84   80   87 1   
    85   80   88 1   
    86   81   82 1   
    87   81   89 1   
    88   81   90 1   
    89   82   83 1   
    90   82   84 2   
    91   83   91 1   
    92   83   92 1   
    93   93   94 1   
    94   93  100 1   
    95   94   95 1   
    96   94   97 1   
    97   94  101 1   
    98   95   96 2   
    99   95  109 1   
   100   97   98 1   
   101   97   99 1   
   102   97  102 1   
   103   98  103 1   
   104   98  104 1   
   105   98  105 1   
   106   99  106 1   
   107   99  107 1   
   108   99  108 1   
   109  109  110 1   
   110  109  117 1   
   111  110  111 1   
   112  110  113 1   
   113  110  118 1   
   114  111  112 2   
   115  111  123 1   
   116  113  114 1   
   117  113  119 1   
   118  113  120 1   
   119  114  115 1   
   120  114  116 2   
   121  115  121 1   
   122  115  122 1   
   123  123  124 1   
   124  123  135 1   
   125  124  125 1   
   126  124  127 1   
   127  124  136 1   
   128  125  126 2   
   129  125  144 1   
   130  127  128 1   
   131  127  137 1   
   132  127  138 1   
   133  128  129 ar  
   134  128  130 ar  
   135  129  131 ar  
   136  129  139 1   
   137  130  132 ar  
   138  130  140 1   
   139  131  133 ar  
   140  131  141 1   
   141  132  133 ar  
   142  132  142 1   
   143  133  134 1   
   144  134  143 1   
   145  144  145 1   
   146  144  153 1   
   147  145  146 1   
   148  145  148 1   
   149  145  154 1   
   150  146  147 2   
   151  146  159 1   
   152  148  149 1   
   153  148  155 1   
   154  148  156 1   
   155  149  150 1   
   156  149  157 1   
   157  149  158 1   
   158  150  151 1   
   159  150  152 1   
   160  159  160 1   
   161  159  168 1   
   162  160  161 1   
   163  160  163 1   
   164  160  169 1   
   165  161  162 2   
   166  161  174 1   
   167  163  164 1   
   168  163  170 1   
   169  163  171 1   
   170  164  165 1   
   171  164  172 1   
   172  164  173 1   
   173  165  166 1   
   174  165  167 1   
   175  174  175 1   
   176  174  179 1   
   177  175  176 1   
   178  175  177 1   
   179  175  178 1   
   180  181  182 1   
   181  181  183 1   
   182  184  185 1   
   183  184  186 1   
   184  187  188 1   
   185  187  189 1   
@<TRIPOS>SUBSTRUCTURE
     1 MOL         1 TEMP              0 ****  ****    0 ROOT
