@<TRIPOS>MOLECULE
MOL
  191   184     1     0     0
SMALL
resp


@<TRIPOS>ATOM
      1 C1         14.5010    3.4240    0.2550 c3        1 MOL     -0.365859
      2 C2         13.5550    2.4710    1.0780 c         1 MOL      0.641827
      3 O1         13.6390    2.4480    2.3420 o         1 MOL     -0.545680
      4 H1         14.9340    4.1700    0.9230 hc        1 MOL      0.093133
      5 H2         15.3000    2.8400   -0.2010 hc        1 MOL      0.093133
      6 H3         13.9260    3.9250   -0.5230 hc        1 MOL      0.093133
      7 N1         12.5910    1.8290    0.3500 n         1 MOL     -0.614513
      8 C3         11.5400    0.9880    0.9330 c3        1 MOL      0.293850
      9 C4         10.4100    0.8950   -0.1200 c         1 MOL      0.420444
     10 O2         10.6500    1.0170   -1.2960 o         1 MOL     -0.553026
     11 C5         12.1130   -0.4590    1.1880 c3        1 MOL     -0.323792
     12 C6         11.2850   -1.4030    2.1420 c         1 MOL      0.779490
     13 O3         11.6680   -2.5430    2.4100 o         1 MOL     -0.730439
     14 O4         10.2100   -0.9610    2.6860 o         1 MOL     -0.730439
     15 H4         12.5440    1.9200   -0.6550 hn        1 MOL      0.309049
     16 H5         11.1060    1.4300    1.8350 h1        1 MOL      0.019155
     17 H6         13.0860   -0.3460    1.6530 hc        1 MOL      0.077180
     18 H7         12.2050   -0.9550    0.2270 hc        1 MOL      0.077180
     19 N2          9.2440    0.4840    0.2860 n         1 MOL     -0.277582
     20 C7          8.0900    0.3610   -0.6110 c3        1 MOL      0.010978
     21 C8          6.9020    0.4620    0.3330 c         1 MOL      0.584746
     22 O5          7.0000    0.5050    1.5180 o         1 MOL     -0.489322
     23 C9          8.1160   -0.9340   -1.4370 c3        1 MOL     -0.100113
     24 C10         8.2810   -2.1810   -0.5980 c3        1 MOL      0.403643
     25 C11         8.5320   -3.3590   -1.4600 c3        1 MOL     -0.461302
     26 C12         8.8480   -4.5550   -0.6010 c3        1 MOL      0.241443
     27 N3          7.6520   -5.1210    0.2280 n4        1 MOL     -0.537921
     28 H8          8.9900    0.4920    1.2690 hn        1 MOL      0.200080
     29 H9          8.0750    1.2460   -1.2420 h1        1 MOL      0.048235
     30 H10         8.8400   -0.9070   -2.2460 hc        1 MOL      0.030086
     31 H11         7.1560   -0.9420   -1.9690 hc        1 MOL      0.030086
     32 H12         7.3880   -2.3920   -0.0060 hc        1 MOL     -0.066280
     33 H13         9.0510   -2.1020    0.1600 hc        1 MOL     -0.066280
     34 H14         9.4400   -3.1970   -2.0480 hc        1 MOL      0.129164
     35 H15         7.7190   -3.6970   -2.1110 hc        1 MOL      0.129164
     36 H16         9.7520   -4.5130    0.0060 hx        1 MOL      0.065548
     37 H17         9.0910   -5.3640   -1.2880 hx        1 MOL      0.065548
     38 H18         6.8950   -5.4610   -0.3420 hn        1 MOL      0.358472
     39 H19         7.9510   -5.9040    0.8050 hn        1 MOL      0.358472
     40 H20         7.2620   -4.4990    0.9260 hn        1 MOL      0.358472
     41 N4          5.7910    0.5810   -0.3760 n         1 MOL     -0.528535
     42 C13         4.5030    0.4180    0.3040 c3        1 MOL      0.049340
     43 C14         4.1340   -1.0780    0.6470 c         1 MOL      0.651402
     44 O6          4.5210   -1.8880   -0.1260 o         1 MOL     -0.526626
     45 C15         3.3840    1.0750   -0.5460 c3        1 MOL     -0.062420
     46 C16         2.0430    1.1730    0.1400 c         1 MOL      0.347055
     47 O7          1.2550    0.2220    0.0720 o         1 MOL     -0.517066
     48 O8          1.7090    2.1660    0.7750 o         1 MOL     -0.517066
     49 H21         5.8530    0.6200   -1.3830 hn        1 MOL      0.322486
     50 H22         4.4190    0.9260    1.2600 h1        1 MOL      0.071370
     51 H23         3.2570    0.6020   -1.5170 hc        1 MOL      0.038563
     52 H24         3.7060    2.0820   -0.7880 hc        1 MOL      0.038563
     53 N5          3.4240   -1.3820    1.7570 n         1 MOL     -0.594960
     54 C17         3.1030   -2.7870    2.0980 c3        1 MOL     -0.004028
     55 C18         2.2260   -3.5410    1.1070 c         1 MOL      0.406509
     56 O9          2.2670   -4.7810    1.0150 o         1 MOL     -0.576349
     57 H25         3.2020   -0.6590    2.4290 hn        1 MOL      0.355371
     58 H26         2.6690   -2.9440    3.0800 h1        1 MOL      0.103510
     59 H27         4.0310   -3.3530    2.1600 h1        1 MOL      0.103510
     60 N6          1.4330   -2.8230    0.3570 n         1 MOL     -0.076841
     61 C19         0.5970   -3.2370   -0.8470 c3        1 MOL      0.037960
     62 C20         0.8060   -2.3450   -2.1510 c         1 MOL      0.449191
     63 O10        -0.0450   -2.2840   -2.9930 o         1 MOL     -0.452136
     64 C21        -0.9270   -3.2970   -0.5330 c3        1 MOL     -0.340941
     65 C22        -1.3530   -3.9930    0.7450 c         1 MOL      0.819619
     66 N7         -1.1170   -5.2470    0.8800 n         1 MOL     -0.807023
     67 O11        -1.8390   -3.3850    1.6710 o         1 MOL     -0.642608
     68 H28         1.4820   -1.8320    0.5520 hn        1 MOL     -0.076522
     69 H29         0.9110   -4.2520   -1.0930 h1        1 MOL      0.076198
     70 H30        -1.3680   -3.8720   -1.3350 hc        1 MOL      0.116282
     71 H31        -1.3960   -2.3110   -0.6380 hc        1 MOL      0.116282
     72 H32        -0.7430   -5.7640    0.1000 hn        1 MOL      0.391409
     73 H33        -1.0440   -5.5910    1.8180 hn        1 MOL      0.391409
     74 N8          2.0050   -1.7310   -2.3520 n         1 MOL     -0.297516
     75 C23         2.2620   -0.9340   -3.6100 c3        1 MOL     -0.244560
     76 C24         1.4040    0.3120   -3.8670 c         1 MOL      0.591184
     77 O12         1.5410    0.8140   -4.9550 o         1 MOL     -0.523936
     78 H34         2.7290   -1.7750   -1.6490 hn        1 MOL      0.222078
     79 H35         1.9280   -1.4820   -4.4970 h1        1 MOL      0.128339
     80 H36         3.3430   -0.7670   -3.7010 h1        1 MOL      0.128339
     81 N9          0.6550    0.8050   -2.8420 n         1 MOL     -0.400854
     82 C25        -0.1920    1.9520   -3.0280 c3        1 MOL     -0.040710
     83 C26        -1.3610    1.8300   -2.0870 c         1 MOL      0.392232
     84 O13        -1.2010    1.6550   -0.8880 o         1 MOL     -0.621303
     85 C27         0.6350    3.2810   -2.7780 c3        1 MOL     -0.202831
     86 C28        -0.1750    4.4460   -2.2050 ca        1 MOL     -0.019333
     87 C29        -1.0840    5.2290   -3.0020 ca        1 MOL     -0.085863
     88 C30         0.0350    4.8420   -0.8640 ca        1 MOL     -0.085863
     89 C31        -1.7580    6.2920   -2.4320 ca        1 MOL     -0.250869
     90 C32        -0.7670    5.8980   -0.2990 ca        1 MOL     -0.250869
     91 C33        -1.6550    6.6200   -1.0660 ca        1 MOL      0.282094
     92 O14        -2.5320    7.5540   -0.6200 oh        1 MOL     -0.447158
     93 H37         0.5500    0.3140   -1.9720 hn        1 MOL      0.315153
     94 H38        -0.4740    1.9520   -4.0780 h1        1 MOL      0.094134
     95 H39         1.1090    3.6310   -3.6860 hc        1 MOL      0.131244
     96 H40         1.3280    3.0410   -1.9660 hc        1 MOL      0.131244
     97 H41        -1.2950    4.9610   -4.0260 ha        1 MOL      0.109436
     98 H42         0.7850    4.3920   -0.2310 ha        1 MOL      0.109436
     99 H43        -2.5220    6.7420   -3.0610 ha        1 MOL      0.142084
    100 H44        -0.6310    6.0760    0.7610 ha        1 MOL      0.142084
    101 H45        -2.4860    7.6730    0.3330 ho        1 MOL      0.358379
    102 N10        -2.5720    2.0620   -2.5040 n         1 MOL     -0.003924
    103 C34        -3.7990    1.7210   -1.7990 c3        1 MOL     -0.451064
    104 C35        -4.0690    0.2260   -1.8310 c         1 MOL      0.786475
    105 O15        -4.4610   -0.3460   -0.8040 o         1 MOL     -0.633519
    106 C36        -5.0030    2.3960   -2.5250 c3        1 MOL      0.097541
    107 C37        -4.7760    3.8840   -2.5330 c3        1 MOL      0.127168
    108 C38        -6.3250    1.9860   -1.8730 c3        1 MOL     -0.405579
    109 C39        -4.7020    4.4700   -1.0640 c3        1 MOL     -0.134998
    110 H46        -2.6420    2.2200   -3.5010 hn        1 MOL      0.158527
    111 H47        -3.7490    1.9480   -0.7370 h1        1 MOL      0.297480
    112 H48        -5.0510    2.0490   -3.5650 hc        1 MOL      0.008883
    113 H49        -5.4820    4.3820   -3.1970 hc        1 MOL     -0.013486
    114 H50        -3.8050    4.0470   -3.0000 hc        1 MOL     -0.013486
    115 H51        -7.0740    2.4930   -2.4870 hc        1 MOL      0.109038
    116 H52        -6.6310    0.9390   -1.8030 hc        1 MOL      0.109038
    117 H53        -6.3560    2.3540   -0.8480 hc        1 MOL      0.109038
    118 H54        -5.6380    4.3340   -0.5210 hc        1 MOL      0.030177
    119 H55        -3.8950    4.0850   -0.4490 hc        1 MOL      0.030177
    120 H56        -4.5560    5.5570   -1.1050 hc        1 MOL      0.030177
    121 N11        -3.7320   -0.4570   -2.9260 n         1 MOL     -0.382658
    122 C40        -3.8470   -1.9310   -2.9220 c3        1 MOL     -0.181717
    123 C41        -5.2550   -2.4840   -2.7970 c         1 MOL      0.578448
    124 O16        -5.3730   -3.6130   -2.2860 o         1 MOL     -0.526672
    125 C42        -3.2430   -2.4550   -4.2190 c3        1 MOL      0.270155
    126 O17        -3.7900   -1.8660   -5.3130 oh        1 MOL     -0.644765
    127 H57        -3.1360   -0.0160   -3.6150 hn        1 MOL      0.276125
    128 H58        -3.2380   -2.2580   -2.0770 h1        1 MOL      0.080832
    129 H59        -3.2810   -3.5380   -4.2820 h1        1 MOL      0.004145
    130 H60        -2.1770   -2.2400   -4.1830 h1        1 MOL      0.004145
    131 H61        -3.4830   -2.4120   -6.0470 ho        1 MOL      0.430239
    132 N12        -6.2460   -1.7320   -3.2310 n         1 MOL     -0.265706
    133 C43        -7.6390   -2.1710   -3.1450 c3        1 MOL      0.083237
    134 C44        -8.0460   -2.5580   -1.6710 c         1 MOL      0.547568
    135 O18        -8.9730   -3.3610   -1.4830 o         1 MOL     -0.514471
    136 C45        -7.8290   -3.1480   -4.3290 c3        1 MOL     -0.472959
    137 H62        -6.0660   -0.8120   -3.5950 hn        1 MOL      0.225366
    138 H63        -8.3250   -1.3790   -3.4500 h1        1 MOL      0.085692
    139 H64        -8.9070   -3.3050   -4.3410 hc        1 MOL      0.138750
    140 H65        -7.4690   -2.6670   -5.2350 hc        1 MOL      0.138750
    141 H66        -7.2500   -4.0720   -4.2360 hc        1 MOL      0.138750
    142 N13        -7.3330   -1.9120   -0.6900 n         1 MOL     -0.642977
    143 C46        -7.4430   -2.1900    0.7870 c3        1 MOL      0.417059
    144 C47        -8.0510   -0.9610    1.5330 c         1 MOL      0.320823
    145 O19        -7.9230    0.2140    1.0900 o         1 MOL     -0.427760
    146 C48        -6.0230   -2.3540    1.2870 c3        1 MOL     -0.193494
    147 H67        -6.4880   -1.4540   -0.9890 hn        1 MOL      0.287426
    148 H68        -8.0150   -3.0940    1.0020 h1        1 MOL     -0.012849
    149 H69        -5.5210   -1.3840    1.2570 hc        1 MOL      0.056988
    150 H70        -6.0310   -2.6530    2.3370 hc        1 MOL      0.056988
    151 H71        -5.4540   -3.0210    0.6420 hc        1 MOL      0.056988
    152 N14        -8.5580   -1.2570    2.7390 n         1 MOL     -0.454946
    153 C49        -9.1730   -0.4620    3.7230 c3        1 MOL      0.079663
    154 C50       -10.3330    0.4540    3.1860 c         1 MOL      0.300622
    155 O20       -10.6070    1.5230    3.7480 o         1 MOL     -0.458866
    156 C51        -8.0740    0.4090    4.4000 c3        1 MOL      0.174889
    157 C52        -6.8630   -0.5600    4.8060 c3        1 MOL     -0.114465
    158 C53        -5.7220    0.0910    5.6150 c         1 MOL      0.609367
    159 O21        -4.5790    0.3840    5.1580 o         1 MOL     -0.689043
    160 O22        -5.9810    0.2500    6.8130 o         1 MOL     -0.689043
    161 H72        -8.5530   -2.2510    2.8860 hn        1 MOL      0.276321
    162 H73        -9.5570   -1.1340    4.4940 h1        1 MOL      0.070458
    163 H74        -8.5140    0.9290    5.2520 hc        1 MOL     -0.006014
    164 H75        -7.6950    1.1910    3.7340 hc        1 MOL     -0.006014
    165 H76        -6.3820   -0.8630    3.8690 hc        1 MOL     -0.008430
    166 H77        -7.2940   -1.4510    5.2620 hc        1 MOL     -0.008430
    167 N15       -11.0040    0.0830    2.1150 n         1 MOL     -0.234637
    168 C54       -11.4420    1.0660    1.1630 c3        1 MOL     -0.195105
    169 H78       -10.9160    2.0040    1.3430 h1        1 MOL      0.096972
    170 H79       -11.2250    0.7170    0.1540 h1        1 MOL      0.096972
    171 H80       -12.5150    1.2240    1.2710 h1        1 MOL      0.096972
    172 H81       -11.0790   -0.8890    1.8390 hn        1 MOL      0.236425
    173 Ca1        -0.5650    1.2880    1.7690 Ca        1 MOL      1.746700
    174 O23        -2.6340   -0.1900    1.0790 oh        1 MOL     -0.822454
    175 H82        -2.9380   -0.6140    1.8810 ho        1 MOL      0.402198
    176 H83        -3.2880   -0.4240    0.4220 ho        1 MOL      0.402198
    177 O24        -0.3680   -1.2620    2.5630 oh        1 MOL     -0.822454
    178 H84        -0.8860   -2.0210    2.2930 ho        1 MOL      0.402198
    179 H85         0.0790   -1.5490    3.3620 ho        1 MOL      0.402198
    180 O25        -1.4630    1.2300    4.2790 oh        1 MOL     -0.822454
    181 H86        -2.3220    1.1130    4.6930 ho        1 MOL      0.402198
    182 H87        -0.8470    0.8430    4.9030 ho        1 MOL      0.402198
    183 O26         1.5040    1.0300    3.4040 oh        1 MOL     -0.822454
    184 H88         2.4520    1.1540    3.5230 ho        1 MOL      0.402198
    185 H89         1.1560    1.0100    4.2890 ho        1 MOL      0.402198
    186 O27        -2.8250    2.5600    1.7820 oh        1 MOL     -0.822454
    187 H90        -2.8280    3.5230    1.7580 ho        1 MOL      0.402198
    188 H91        -3.7430    2.3150    1.6760 ho        1 MOL      0.402198
    189 O28        -0.0920    3.8420    2.5620 oh        1 MOL     -0.822454
    190 H92        -0.8670    4.3640    2.7660 ho        1 MOL      0.402198
    191 H93         0.6120    4.2590    3.0560 ho        1 MOL      0.402198
@<TRIPOS>BOND
     1    1    2 1   
     2    1    4 1   
     3    1    5 1   
     4    1    6 1   
     5    2    3 2   
     6    2    7 1   
     7    7    8 1   
     8    7   15 1   
     9    8    9 1   
    10    8   11 1   
    11    8   16 1   
    12    9   10 2   
    13    9   19 1   
    14   11   12 1   
    15   11   17 1   
    16   11   18 1   
    17   12   13 1   
    18   12   14 1   
    19   19   20 1   
    20   19   28 1   
    21   20   21 1   
    22   20   23 1   
    23   20   29 1   
    24   21   22 2   
    25   21   41 1   
    26   23   24 1   
    27   23   30 1   
    28   23   31 1   
    29   24   25 1   
    30   24   32 1   
    31   24   33 1   
    32   25   26 1   
    33   25   34 1   
    34   25   35 1   
    35   26   27 1   
    36   26   36 1   
    37   26   37 1   
    38   27   38 1   
    39   27   39 1   
    40   27   40 1   
    41   41   42 1   
    42   41   49 1   
    43   42   43 1   
    44   42   45 1   
    45   42   50 1   
    46   43   44 2   
    47   43   53 1   
    48   45   46 1   
    49   45   51 1   
    50   45   52 1   
    51   46   47 1   
    52   46   48 1   
    53   53   54 1   
    54   53   57 1   
    55   54   55 1   
    56   54   58 1   
    57   54   59 1   
    58   55   56 2   
    59   55   60 1   
    60   60   61 1   
    61   60   68 1   
    62   61   62 1   
    63   61   64 1   
    64   61   69 1   
    65   62   63 2   
    66   62   74 1   
    67   64   65 1   
    68   64   70 1   
    69   64   71 1   
    70   65   66 1   
    71   65   67 2   
    72   66   72 1   
    73   66   73 1   
    74   74   75 1   
    75   74   78 1   
    76   75   76 1   
    77   75   79 1   
    78   75   80 1   
    79   76   77 2   
    80   76   81 1   
    81   81   82 1   
    82   81   93 1   
    83   82   83 1   
    84   82   85 1   
    85   82   94 1   
    86   83   84 2   
    87   83  102 1   
    88   85   86 1   
    89   85   95 1   
    90   85   96 1   
    91   86   87 ar  
    92   86   88 ar  
    93   87   89 ar  
    94   87   97 1   
    95   88   90 ar  
    96   88   98 1   
    97   89   91 ar  
    98   89   99 1   
    99   90   91 ar  
   100   90  100 1   
   101   91   92 1   
   102   92  101 1   
   103  102  103 1   
   104  102  110 1   
   105  103  104 1   
   106  103  106 1   
   107  103  111 1   
   108  104  105 2   
   109  104  121 1   
   110  106  107 1   
   111  106  108 1   
   112  106  112 1   
   113  107  109 1   
   114  107  113 1   
   115  107  114 1   
   116  108  115 1   
   117  108  116 1   
   118  108  117 1   
   119  109  118 1   
   120  109  119 1   
   121  109  120 1   
   122  121  122 1   
   123  121  127 1   
   124  122  123 1   
   125  122  125 1   
   126  122  128 1   
   127  123  124 2   
   128  123  132 1   
   129  125  126 1   
   130  125  129 1   
   131  125  130 1   
   132  126  131 1   
   133  132  133 1   
   134  132  137 1   
   135  133  134 1   
   136  133  136 1   
   137  133  138 1   
   138  134  135 2   
   139  134  142 1   
   140  136  139 1   
   141  136  140 1   
   142  136  141 1   
   143  142  143 1   
   144  142  147 1   
   145  143  144 1   
   146  143  146 1   
   147  143  148 1   
   148  144  145 2   
   149  144  152 1   
   150  146  149 1   
   151  146  150 1   
   152  146  151 1   
   153  152  153 1   
   154  152  161 1   
   155  153  154 1   
   156  153  156 1   
   157  153  162 1   
   158  154  155 2   
   159  154  167 1   
   160  156  157 1   
   161  156  163 1   
   162  156  164 1   
   163  157  158 1   
   164  157  165 1   
   165  157  166 1   
   166  158  159 1   
   167  158  160 1   
   168  167  168 1   
   169  167  172 1   
   170  168  169 1   
   171  168  170 1   
   172  168  171 1   
   173  174  175 1   
   174  174  176 1   
   175  177  178 1   
   176  177  179 1   
   177  180  181 1   
   178  180  182 1   
   179  183  184 1   
   180  183  185 1   
   181  186  187 1   
   182  186  188 1   
   183  189  190 1   
   184  189  191 1   
@<TRIPOS>SUBSTRUCTURE
     1 MOL         1 TEMP              0 ****  ****    0 ROOT
