@<TRIPOS>MOLECULE
MOL
  189   185     1     0     0
SMALL
resp


@<TRIPOS>ATOM
      1 C1          4.2030    4.7360   -3.5940 c3        1 MOL     -0.547416
      2 C2          4.8630    3.8940   -2.4860 c         1 MOL      0.998247
      3 O1          4.1960    3.6600   -1.5020 o         1 MOL     -0.737456
      4 H1          3.1400    4.5020   -3.6430 hc        1 MOL      0.130834
      5 H2          4.3320    5.7950   -3.3720 hc        1 MOL      0.130834
      6 H3          4.6700    4.5050   -4.5520 hc        1 MOL      0.130834
      7 N1          6.0920    3.4190   -2.7040 n         1 MOL     -0.730872
      8 C3          6.9130    2.4520   -1.9390 c3        1 MOL      0.355741
      9 C4          6.0980    1.2140   -1.6620 c         1 MOL      0.256992
     10 O2          5.5860    0.9800   -0.5500 o         1 MOL     -0.477924
     11 C5          7.7730    2.8910   -0.8060 c3        1 MOL     -0.171876
     12 C6          7.1000    4.1040   -0.0330 c         1 MOL      0.673665
     13 O3          6.0780    4.0090    0.6860 o         1 MOL     -0.702728
     14 O4          7.5650    5.2200   -0.3260 o         1 MOL     -0.702728
     15 H4          6.3980    3.5560   -3.6520 hn        1 MOL      0.320168
     16 H5          7.5780    2.1420   -2.7560 h1        1 MOL      0.016086
     17 H6          8.7020    3.2410   -1.2500 hc        1 MOL      0.041040
     18 H7          8.0720    2.1180   -0.0940 hc        1 MOL      0.041040
     19 N2          5.8280    0.4310   -2.6960 n         1 MOL     -0.503556
     20 C7          5.0400   -0.8390   -2.7910 c3        1 MOL      0.173990
     21 C8          5.6640   -2.0020   -2.1490 c         1 MOL      0.398772
     22 O5          5.8430   -3.0140   -2.8200 o         1 MOL     -0.539757
     23 C9          3.5900   -0.5770   -2.3390 c3        1 MOL     -0.007966
     24 C10         2.7490   -1.8720   -2.5360 c3        1 MOL     -0.188310
     25 C11         2.8730    0.4740   -3.1910 c3        1 MOL     -0.313868
     26 C12         2.5440   -2.4270   -3.9300 c3        1 MOL     -0.112133
     27 H8          6.2860    0.5770   -3.5860 hn        1 MOL      0.298880
     28 H9          4.9940   -1.1140   -3.8420 h1        1 MOL      0.043150
     29 H10         3.5060   -0.2940   -1.2830 hc        1 MOL      0.063510
     30 H11         1.7550   -1.7160   -2.1130 hc        1 MOL      0.107101
     31 H12         3.1390   -2.6680   -1.8870 hc        1 MOL      0.107101
     32 H13         2.9010    0.3210   -4.2730 hc        1 MOL      0.077795
     33 H14         1.8320    0.5480   -2.8710 hc        1 MOL      0.077795
     34 H15         3.2740    1.4740   -3.0470 hc        1 MOL      0.077795
     35 H16         2.0710   -3.4100   -3.8860 hc        1 MOL      0.032804
     36 H17         1.9060   -1.8340   -4.5770 hc        1 MOL      0.032804
     37 H18         3.4440   -2.6320   -4.5100 hc        1 MOL      0.032804
     38 N3          6.1910   -1.8860   -0.9030 n         1 MOL     -0.199957
     39 C13         6.9960   -2.9150   -0.2890 c3        1 MOL      0.176973
     40 C14         6.2620   -4.2930   -0.0400 c         1 MOL      0.570823
     41 O6          6.8530   -5.3310   -0.4280 o         1 MOL     -0.585530
     42 C15         7.7200   -2.4220    0.9360 c3        1 MOL     -0.450948
     43 C16         8.6330   -1.1880    0.6750 c         1 MOL      0.830517
     44 O7          9.4170   -1.2550   -0.2730 o         1 MOL     -0.744189
     45 O8          8.6310   -0.1500    1.3900 o         1 MOL     -0.744189
     46 H19         6.2430   -0.9270   -0.5680 hn        1 MOL      0.277197
     47 H20         7.7440   -3.2390   -1.0180 h1        1 MOL      0.017838
     48 H21         8.4500   -3.1750    1.2290 hc        1 MOL      0.102892
     49 H22         7.0870   -2.1870    1.7850 hc        1 MOL      0.102892
     50 N4          5.0510   -4.3920    0.5570 n         1 MOL     -0.585028
     51 C17         4.2010   -3.3500    1.1390 c3        1 MOL      0.152448
     52 C18         4.5810   -3.1120    2.6130 c         1 MOL      0.506112
     53 O9          5.4870   -3.7380    3.1880 o         1 MOL     -0.550181
     54 H23         4.7360   -5.3390    0.7080 hn        1 MOL      0.316485
     55 H24         3.1990   -3.7930    1.2350 h1        1 MOL      0.024228
     56 H25         4.1060   -2.4370    0.5510 h1        1 MOL      0.024228
     57 N5          3.8120   -2.2980    3.3340 n         1 MOL     -0.423090
     58 C19         2.4010   -1.8180    3.0630 c3        1 MOL      0.213553
     59 C20         2.3530   -0.8520    1.8300 c         1 MOL      0.263128
     60 O10         3.2340   -0.0400    1.5530 o         1 MOL     -0.590415
     61 C21         1.8780   -1.1540    4.3640 c3        1 MOL     -0.212959
     62 C22         2.8390   -0.3160    5.2700 c         1 MOL      0.703435
     63 O11         3.5490   -0.9040    6.1030 o         1 MOL     -0.676993
     64 O12         2.7250    0.9350    5.0880 o         1 MOL     -0.676993
     65 H26         4.0180   -2.1610    4.3040 hn        1 MOL      0.271558
     66 H27         1.7850   -2.6670    2.7530 h1        1 MOL     -0.052217
     67 H28         1.5170   -1.9530    5.0110 hc        1 MOL      0.032578
     68 H29         1.1270   -0.4380    4.0380 hc        1 MOL      0.032578
     69 N6          1.2480   -0.8130    1.1100 n         1 MOL     -0.072292
     70 C23        -0.0580   -1.4890    1.2810 c3        1 MOL      0.129352
     71 C24        -0.2220   -2.7920    0.5010 c         1 MOL      0.429149
     72 O13         0.6830   -3.2810   -0.0880 o         1 MOL     -0.508154
     73 H30         1.2560   -0.1280    0.3770 hn        1 MOL      0.130902
     74 H31        -0.8480   -0.8750    0.8460 h1        1 MOL     -0.024102
     75 H32        -0.3170   -1.6880    2.3150 h1        1 MOL     -0.024102
     76 N7         -1.4180   -3.3930    0.6380 n         1 MOL     -0.186858
     77 C25        -1.7500   -4.6740    0.0160 c3        1 MOL     -0.112663
     78 C26        -2.2370   -4.6400   -1.4290 c         1 MOL      0.418807
     79 O14        -2.2700   -5.6970   -2.0630 o         1 MOL     -0.524052
     80 C27        -2.5970   -5.5450    0.9550 c3        1 MOL      0.054080
     81 C28        -2.1320   -5.7680    2.4540 c3        1 MOL     -0.159631
     82 C29        -0.6850   -6.2790    2.6470 c         1 MOL      0.510011
     83 N8          0.0630   -5.5960    3.3970 n         1 MOL     -0.588767
     84 O15        -0.0550   -7.1730    1.9900 o         1 MOL     -0.553006
     85 H33        -2.1520   -2.9270    1.1530 hn        1 MOL      0.221742
     86 H34        -0.8550   -5.2730   -0.1050 h1        1 MOL      0.157379
     87 H35        -2.7640   -6.5430    0.5250 hc        1 MOL      0.023431
     88 H36        -3.5880   -5.0890    0.9570 hc        1 MOL      0.023431
     89 H37        -2.8220   -6.4850    2.9140 hc        1 MOL      0.035531
     90 H38        -2.1650   -4.8670    3.0540 hc        1 MOL      0.035531
     91 H39        -0.2040   -4.8040    3.9760 hn        1 MOL      0.325259
     92 H40         0.9560   -6.0300    3.5510 hn        1 MOL      0.325259
     93 N9         -2.5980   -3.4880   -1.9080 n         1 MOL     -0.305712
     94 C30        -3.0160   -3.2820   -3.3540 c3        1 MOL     -0.121309
     95 C31        -4.3760   -2.5430   -3.4840 c         1 MOL      0.623660
     96 O16        -5.0100   -2.8320   -4.4610 o         1 MOL     -0.540462
     97 C32        -2.0320   -2.4080   -4.0740 c3        1 MOL      0.211586
     98 C33        -0.7660   -3.1570   -4.3200 c3        1 MOL     -0.251487
     99 C34        -1.6460   -1.1440   -3.3330 c3        1 MOL     -0.251487
    100 H41        -2.4990   -2.6780   -1.3200 hn        1 MOL      0.232263
    101 H42        -2.9850   -4.2210   -3.8920 h1        1 MOL      0.126065
    102 H43        -2.5090   -2.1340   -5.0180 hc        1 MOL     -0.006907
    103 H44        -0.1250   -2.6400   -5.0290 hc        1 MOL      0.063828
    104 H45        -0.2350   -3.4600   -3.4160 hc        1 MOL      0.063828
    105 H46        -1.0440   -4.0570   -4.8740 hc        1 MOL      0.063828
    106 H47        -2.5400   -0.5530   -3.1820 hc        1 MOL      0.063828
    107 H48        -1.3620   -1.3350   -2.2980 hc        1 MOL      0.063828
    108 H49        -0.9070   -0.5770   -3.9020 hc        1 MOL      0.063828
    109 N10        -4.8960   -1.9100   -2.3710 n         1 MOL     -0.450721
    110 C35        -6.2330   -1.3690   -2.4060 c3        1 MOL      0.034092
    111 C36        -6.4110    0.0220   -1.8150 c         1 MOL      0.568276
    112 O17        -6.9570    0.9160   -2.4830 o         1 MOL     -0.567130
    113 C37        -7.2930   -2.3960   -1.9250 c3        1 MOL     -0.276257
    114 C38        -6.9840   -2.9950   -0.5920 c         1 MOL      0.683962
    115 N11        -7.5850   -4.1400   -0.2570 n         1 MOL     -0.767535
    116 O18        -6.1740   -2.4830    0.1680 o         1 MOL     -0.561163
    117 H50        -4.3010   -1.8560   -1.5490 hn        1 MOL      0.229451
    118 H51        -6.5230   -1.2650   -3.4560 h1        1 MOL      0.074628
    119 H52        -7.3960   -3.2540   -2.5910 hc        1 MOL      0.108908
    120 H53        -8.3070   -2.0090   -1.8060 hc        1 MOL      0.108908
    121 H54        -8.1490   -4.6780   -0.8930 hn        1 MOL      0.353737
    122 H55        -7.3880   -4.4660    0.6780 hn        1 MOL      0.353737
    123 N12        -5.8850    0.1950   -0.6020 n         1 MOL     -0.475160
    124 C39        -6.2010    1.3820    0.2240 c3        1 MOL      0.156781
    125 C40        -4.9590    2.0730    0.7510 c         1 MOL      0.632143
    126 O19        -3.9890    1.3890    1.0060 o         1 MOL     -0.546137
    127 C41        -7.0130    1.0560    1.5090 c3        1 MOL      0.082656
    128 C42        -8.2740    0.4000    1.2430 ca        1 MOL      0.106420
    129 C43        -8.4870   -0.9370    1.8280 ca        1 MOL     -0.227065
    130 C44        -9.2720    0.9430    0.4240 ca        1 MOL     -0.227065
    131 C45        -9.6370   -1.6930    1.4990 ca        1 MOL     -0.188255
    132 C46       -10.4190    0.1290    0.1690 ca        1 MOL     -0.188255
    133 C47       -10.6700   -1.1410    0.7450 ca        1 MOL      0.218459
    134 O20       -11.7130   -1.9120    0.3210 oh        1 MOL     -0.478724
    135 H56        -5.3050   -0.5050   -0.1730 hn        1 MOL      0.272349
    136 H57        -6.6120    2.1480   -0.4290 h1        1 MOL      0.013788
    137 H58        -7.2520    1.9800    2.0330 hc        1 MOL      0.004036
    138 H59        -6.3630    0.4290    2.1330 hc        1 MOL      0.004036
    139 H60        -7.7540   -1.4330    2.4400 ha        1 MOL      0.153278
    140 H61        -9.2460    1.9570    0.0330 ha        1 MOL      0.153278
    141 H62        -9.7200   -2.6980    1.8770 ha        1 MOL      0.114383
    142 H63       -11.2300    0.5510   -0.3990 ha        1 MOL      0.114383
    143 H64       -12.3360   -1.3290   -0.1250 ho        1 MOL      0.351135
    144 N13        -4.9890    3.3520    1.0270 n         1 MOL     -0.635480
    145 C48        -3.9880    4.3250    1.4470 c3        1 MOL     -0.089339
    146 C49        -2.7460    4.5540    0.5900 c         1 MOL      0.237517
    147 O21        -1.9470    5.4640    0.9650 o         1 MOL     -0.480275
    148 C50        -3.5280    4.0960    2.8510 c3        1 MOL      0.071727
    149 C51        -4.5850    4.0320    3.9340 c3        1 MOL     -0.102579
    150 C52        -5.6280    5.1790    3.9720 c         1 MOL      0.620173
    151 O22        -6.8180    4.9540    3.5220 o         1 MOL     -0.711366
    152 O23        -5.2370    6.3230    4.3290 o         1 MOL     -0.711366
    153 H65        -5.9380    3.6860    0.9550 hn        1 MOL      0.311616
    154 H66        -4.5650    5.2390    1.3700 h1        1 MOL      0.176737
    155 H67        -2.8560    4.8870    3.1800 hc        1 MOL      0.054506
    156 H68        -3.0070    3.1340    2.8880 hc        1 MOL      0.054506
    157 H69        -4.1000    3.9930    4.9060 hc        1 MOL     -0.009867
    158 H70        -5.1490    3.0970    3.9380 hc        1 MOL     -0.009867
    159 N14        -2.4780    3.9150   -0.4800 n         1 MOL      0.090244
    160 C53        -1.3050    4.2510   -1.3900 c3        1 MOL     -0.341017
    161 C54        -1.7280    5.2460   -2.5270 c         1 MOL      0.593376
    162 O24        -1.0120    6.2240   -2.7630 o         1 MOL     -0.545372
    163 C55        -0.8050    2.9020   -2.0300 c3        1 MOL      0.177208
    164 C56        -0.6840    1.7280   -1.0560 c3        1 MOL      0.255640
    165 C57         0.3110    2.0040    0.0390 c         1 MOL      0.552132
    166 O25         1.5870    2.0460   -0.1890 o         1 MOL     -0.617433
    167 O26        -0.1700    2.1780    1.1820 o         1 MOL     -0.617433
    168 H71        -3.0680    3.1540   -0.7950 hn        1 MOL      0.130722
    169 H72        -0.5440    4.7610   -0.7950 h1        1 MOL      0.187937
    170 H73         0.2090    3.1030   -2.3900 hc        1 MOL     -0.062753
    171 H74        -1.4010    2.5930   -2.8840 hc        1 MOL     -0.062753
    172 H75        -0.2900    0.9150   -1.6630 hc        1 MOL     -0.126917
    173 H76        -1.6610    1.4450   -0.6690 hc        1 MOL     -0.126917
    174 N15        -2.8650    5.0730   -3.1360 n         1 MOL     -0.314846
    175 C58        -3.6130    6.0830   -3.8950 c3        1 MOL     -0.386822
    176 H77        -4.6320    5.7320   -4.0580 h1        1 MOL      0.149998
    177 H78        -3.6370    7.0170   -3.3340 h1        1 MOL      0.149998
    178 H79        -3.1280    6.2480   -4.8560 h1        1 MOL      0.149998
    179 H80        -3.4680    4.4220   -2.6430 hn        1 MOL      0.240905
    180 Ca1         4.0380    2.4300    0.7890 Ca        1 MOL      1.715798
    181 O27         2.8860    2.7200    3.1910 oh        1 MOL     -0.845367
    182 H81         1.9780    2.9240    3.4190 ho        1 MOL      0.408838
    183 H82         3.0880    1.9340    3.7010 ho        1 MOL      0.408838
    184 O28         3.2860    5.0420    0.9710 oh        1 MOL     -0.845367
    185 H83         3.9340    5.6380    0.5930 ho        1 MOL      0.408838
    186 H84         2.4510    5.4950    0.8560 ho        1 MOL      0.408838
    187 O29         5.9130    1.4300    2.4420 oh        1 MOL     -0.845367
    188 H85         6.0310    1.7800    3.3260 ho        1 MOL      0.408838
    189 H86         6.6260    0.7970    2.3390 ho        1 MOL      0.408838
@<TRIPOS>BOND
     1    1    2 1   
     2    1    4 1   
     3    1    5 1   
     4    1    6 1   
     5    2    3 2   
     6    2    7 1   
     7    7    8 1   
     8    7   15 1   
     9    8    9 1   
    10    8   11 1   
    11    8   16 1   
    12    9   10 2   
    13    9   19 1   
    14   11   12 1   
    15   11   17 1   
    16   11   18 1   
    17   12   13 1   
    18   12   14 1   
    19   19   20 1   
    20   19   27 1   
    21   20   21 1   
    22   20   23 1   
    23   20   28 1   
    24   21   22 2   
    25   21   38 1   
    26   23   24 1   
    27   23   25 1   
    28   23   29 1   
    29   24   26 1   
    30   24   30 1   
    31   24   31 1   
    32   25   32 1   
    33   25   33 1   
    34   25   34 1   
    35   26   35 1   
    36   26   36 1   
    37   26   37 1   
    38   38   39 1   
    39   38   46 1   
    40   39   40 1   
    41   39   42 1   
    42   39   47 1   
    43   40   41 2   
    44   40   50 1   
    45   42   43 1   
    46   42   48 1   
    47   42   49 1   
    48   43   44 1   
    49   43   45 1   
    50   50   51 1   
    51   50   54 1   
    52   51   52 1   
    53   51   55 1   
    54   51   56 1   
    55   52   53 2   
    56   52   57 1   
    57   57   58 1   
    58   57   65 1   
    59   58   59 1   
    60   58   61 1   
    61   58   66 1   
    62   59   60 2   
    63   59   69 1   
    64   61   62 1   
    65   61   67 1   
    66   61   68 1   
    67   62   63 1   
    68   62   64 1   
    69   69   70 1   
    70   69   73 1   
    71   70   71 1   
    72   70   74 1   
    73   70   75 1   
    74   71   72 2   
    75   71   76 1   
    76   76   77 1   
    77   76   85 1   
    78   77   78 1   
    79   77   80 1   
    80   77   86 1   
    81   78   79 2   
    82   78   93 1   
    83   80   81 1   
    84   80   87 1   
    85   80   88 1   
    86   81   82 1   
    87   81   89 1   
    88   81   90 1   
    89   82   83 1   
    90   82   84 2   
    91   83   91 1   
    92   83   92 1   
    93   93   94 1   
    94   93  100 1   
    95   94   95 1   
    96   94   97 1   
    97   94  101 1   
    98   95   96 2   
    99   95  109 1   
   100   97   98 1   
   101   97   99 1   
   102   97  102 1   
   103   98  103 1   
   104   98  104 1   
   105   98  105 1   
   106   99  106 1   
   107   99  107 1   
   108   99  108 1   
   109  109  110 1   
   110  109  117 1   
   111  110  111 1   
   112  110  113 1   
   113  110  118 1   
   114  111  112 2   
   115  111  123 1   
   116  113  114 1   
   117  113  119 1   
   118  113  120 1   
   119  114  115 1   
   120  114  116 2   
   121  115  121 1   
   122  115  122 1   
   123  123  124 1   
   124  123  135 1   
   125  124  125 1   
   126  124  127 1   
   127  124  136 1   
   128  125  126 2   
   129  125  144 1   
   130  127  128 1   
   131  127  137 1   
   132  127  138 1   
   133  128  129 ar  
   134  128  130 ar  
   135  129  131 ar  
   136  129  139 1   
   137  130  132 ar  
   138  130  140 1   
   139  131  133 ar  
   140  131  141 1   
   141  132  133 ar  
   142  132  142 1   
   143  133  134 1   
   144  134  143 1   
   145  144  145 1   
   146  144  153 1   
   147  145  146 1   
   148  145  148 1   
   149  145  154 1   
   150  146  147 2   
   151  146  159 1   
   152  148  149 1   
   153  148  155 1   
   154  148  156 1   
   155  149  150 1   
   156  149  157 1   
   157  149  158 1   
   158  150  151 1   
   159  150  152 1   
   160  159  160 1   
   161  159  168 1   
   162  160  161 1   
   163  160  163 1   
   164  160  169 1   
   165  161  162 2   
   166  161  174 1   
   167  163  164 1   
   168  163  170 1   
   169  163  171 1   
   170  164  165 1   
   171  164  172 1   
   172  164  173 1   
   173  165  166 1   
   174  165  167 1   
   175  174  175 1   
   176  174  179 1   
   177  175  176 1   
   178  175  177 1   
   179  175  178 1   
   180  181  182 1   
   181  181  183 1   
   182  184  185 1   
   183  184  186 1   
   184  187  188 1   
   185  187  189 1   
@<TRIPOS>SUBSTRUCTURE
     1 MOL         1 TEMP              0 ****  ****    0 ROOT
