@<TRIPOS>MOLECULE
MOL
  195   189     1     0     0
SMALL
resp


@<TRIPOS>ATOM
      1 C1          6.7090    0.0890    5.5650 c3        1 MOL     -0.217966
      2 C2          5.9880    0.1920    4.2330 c         1 MOL      0.809400
      3 O1          5.4190    1.2580    3.8510 o         1 MOL     -0.659326
      4 H1          5.9780   -0.0160    6.3660 hc        1 MOL      0.053974
      5 H2          7.3660   -0.7800    5.5570 hc        1 MOL      0.053974
      6 H3          7.3000    0.9900    5.7300 hc        1 MOL      0.053974
      7 N1          5.8910   -0.9150    3.4650 n         1 MOL     -0.675487
      8 C3          5.2610   -1.0100    2.1250 c3        1 MOL      0.517462
      9 C4          3.7560   -0.7540    2.0710 c         1 MOL     -0.012490
     10 O2          3.1610   -0.8200    0.9460 o         1 MOL     -0.101712
     11 C5          5.5820   -2.4100    1.5310 c3        1 MOL     -0.339122
     12 C6          7.0620   -2.6270    1.5650 c         1 MOL      0.783471
     13 O3          7.5810   -2.9270    2.7050 o         1 MOL     -0.708106
     14 O4          7.7440   -2.5070    0.5680 o         1 MOL     -0.708106
     15 H4          6.3760   -1.7620    3.7290 hn        1 MOL      0.293886
     16 H5          5.8000   -0.3130    1.4780 h1        1 MOL      0.039825
     17 H6          5.1090   -2.4900    0.5560 hc        1 MOL      0.016897
     18 H7          5.1130   -3.1600    2.1790 hc        1 MOL      0.016897
     19 N2          3.0000   -0.4070    3.1040 n         1 MOL     -0.242060
     20 C7          1.5320   -0.4230    3.0570 c3        1 MOL      0.180612
     21 C8          1.1110    1.1050    2.9350 c         1 MOL      0.415011
     22 O5          1.5380    1.9240    3.7470 o         1 MOL     -0.483852
     23 C9          1.0300   -1.1000    4.3660 c3        1 MOL     -0.491701
     24 C10         1.1000   -2.6500    4.2890 c3        1 MOL      0.159112
     25 C11         0.6450   -3.2970    5.6200 c3        1 MOL     -0.060420
     26 C12         0.3880   -4.8150    5.4270 c3        1 MOL      0.073668
     27 N3         -1.0770   -5.2950    5.4910 n4        1 MOL     -0.426017
     28 H8          3.4930   -0.0950    3.9260 hn        1 MOL      0.242320
     29 H9          1.1800   -0.8780    2.1330 h1        1 MOL      0.014399
     30 H10        -0.0210   -0.8200    4.4700 hc        1 MOL      0.156441
     31 H11         1.5040   -0.7050    5.2630 hc        1 MOL      0.156441
     32 H12         2.1100   -2.9360    4.0060 hc        1 MOL      0.040382
     33 H13         0.5070   -3.1610    3.5270 hc        1 MOL      0.040382
     34 H14        -0.2500   -2.7540    5.9240 hc        1 MOL      0.043629
     35 H15         1.4500   -3.0930    6.3310 hc        1 MOL      0.043629
     36 H16         0.9730   -5.3600    6.1590 hx        1 MOL      0.053862
     37 H17         0.7810   -4.9640    4.4180 hx        1 MOL      0.053862
     38 H18        -1.0810   -6.1630    4.9840 hn        1 MOL      0.335008
     39 H19        -1.3390   -5.4960    6.4460 hn        1 MOL      0.335008
     40 H20        -1.6910   -4.6350    5.0250 hn        1 MOL      0.335008
     41 N4          0.1360    1.4160    2.0690 n         1 MOL     -0.095294
     42 C13        -0.7000    0.6470    1.0730 c3        1 MOL     -0.506179
     43 C14        -1.3900   -0.6520    1.5210 c         1 MOL      0.258166
     44 O6         -1.1010   -1.7210    1.0300 o         1 MOL     -0.396366
     45 C15        -0.0480    0.5730   -0.2950 c3        1 MOL     -0.481538
     46 C16         0.2120    1.9610   -0.9870 c         1 MOL      0.783317
     47 O7          0.9180    1.9320   -2.0450 o         1 MOL     -0.737509
     48 O8         -0.2390    3.0290   -0.5100 o         1 MOL     -0.737509
     49 H21        -0.0550    2.4000    2.0920 hn        1 MOL      0.176703
     50 H22        -1.5870    1.2660    0.9420 h1        1 MOL      0.191394
     51 H23        -0.6730    0.0040   -0.9900 hc        1 MOL      0.207110
     52 H24         0.8920    0.0290   -0.1780 hc        1 MOL      0.207110
     53 N5         -2.4350   -0.6420    2.4130 n         1 MOL     -0.298118
     54 C17        -3.4640    0.4300    2.5020 c3        1 MOL     -0.082935
     55 C18        -4.7580   -0.0150    3.2080 c         1 MOL      0.555524
     56 O9         -4.7840   -1.1810    3.6350 o         1 MOL     -0.553694
     57 H25        -2.6570   -1.4740    2.9390 hn        1 MOL      0.265877
     58 H26        -3.6200    0.7230    1.4650 h1        1 MOL      0.094529
     59 H27        -3.0150    1.2120    3.1160 h1        1 MOL      0.094529
     60 N6         -5.7540    0.8770    3.3460 n         1 MOL     -0.494122
     61 C19        -5.8560    2.2590    2.8900 c3        1 MOL      0.279435
     62 C20        -6.3660    2.2920    1.4230 c         1 MOL      0.463822
     63 O10        -7.1540    1.4500    0.9620 o         1 MOL     -0.428668
     64 C21        -6.6190    3.0980    3.8230 c3        1 MOL     -0.348036
     65 C22        -8.0600    2.4900    4.1750 c         1 MOL      0.680211
     66 O11        -8.1260    1.6530    5.1170 o         1 MOL     -0.646561
     67 O12        -9.0850    2.6000    3.4450 o         1 MOL     -0.646561
     68 H28        -6.5590    0.5760    3.8700 hn        1 MOL      0.304402
     69 H29        -4.8330    2.6400    2.7850 h1        1 MOL     -0.041362
     70 H30        -6.8510    4.0760    3.4050 hc        1 MOL      0.062114
     71 H31        -6.0520    3.2690    4.7430 hc        1 MOL      0.062114
     72 N7         -5.9590    3.2910    0.6840 n         1 MOL     -0.347382
     73 C23        -6.5310    3.6330   -0.6460 c3        1 MOL     -0.177905
     74 C24        -6.1110    2.5990   -1.7810 c         1 MOL      0.472829
     75 O13        -6.8690    2.3760   -2.7460 o         1 MOL     -0.521087
     76 H32        -5.2690    3.9130    1.0820 hn        1 MOL      0.224805
     77 H33        -6.1530    4.5800   -1.0270 h1        1 MOL      0.134310
     78 H34        -7.6160    3.7140   -0.6750 h1        1 MOL      0.134310
     79 N8         -4.9150    2.0100   -1.7100 n         1 MOL     -0.345653
     80 C25        -4.5730    0.8260   -2.4740 c3        1 MOL      0.086832
     81 C26        -4.2460   -0.2980   -1.5070 c         1 MOL      0.081291
     82 O14        -3.2950   -0.1950   -0.7710 o         1 MOL     -0.194851
     83 C27        -3.3640    1.0420   -3.3880 c3        1 MOL      0.212622
     84 C28        -3.6120    2.1030   -4.4240 c3        1 MOL     -0.168998
     85 O15        -3.0380   -0.1320   -4.0940 oh        1 MOL     -0.624652
     86 H35        -4.2900    2.3000   -0.9710 hn        1 MOL      0.169447
     87 H36        -5.3620    0.4770   -3.1520 h1        1 MOL      0.131373
     88 H37        -2.5270    1.2870   -2.7280 h1        1 MOL      0.064585
     89 H38        -2.1760   -0.0590   -4.4930 ho        1 MOL      0.429940
     90 H39        -2.8180    2.2820   -5.1350 hc        1 MOL      0.048321
     91 H40        -4.4080    1.7520   -5.0810 hc        1 MOL      0.048321
     92 H41        -3.9610    2.9920   -3.9040 hc        1 MOL      0.048321
     93 N9         -5.0660   -1.3750   -1.4590 n         1 MOL     -0.091713
     94 C29        -4.8260   -2.4300   -0.4600 c3        1 MOL     -0.161309
     95 C30        -3.6660   -3.3780   -0.8450 c         1 MOL      0.187790
     96 O16        -3.2050   -4.1940   -0.0230 o         1 MOL     -0.455881
     97 C31        -6.0470   -3.1750   -0.0120 c3        1 MOL     -0.125485
     98 C32        -6.5720   -4.0200   -1.2150 c3        1 MOL      0.232731
     99 C33        -7.0820   -2.2060    0.5780 c3        1 MOL     -0.099668
    100 C34        -6.2640   -5.4670   -1.4930 c3        1 MOL     -0.290436
    101 H42        -5.8090   -1.4650   -2.1430 hn        1 MOL      0.232416
    102 H43        -4.5530   -1.9200    0.4590 h1        1 MOL      0.200919
    103 H44        -5.7330   -3.8990    0.7460 hc        1 MOL      0.099700
    104 H45        -6.3440   -3.5710   -2.1790 hc        1 MOL     -0.034945
    105 H46        -7.6620   -3.9830   -1.2080 hc        1 MOL     -0.034945
    106 H47        -7.5220   -1.5650   -0.1890 hc        1 MOL      0.042210
    107 H48        -7.8680   -2.6780    1.1670 hc        1 MOL      0.042210
    108 H49        -6.5550   -1.4980    1.2130 hc        1 MOL      0.042210
    109 H50        -6.7370   -5.6670   -2.4580 hc        1 MOL      0.070849
    110 H51        -5.1940   -5.6940   -1.4050 hc        1 MOL      0.070849
    111 H52        -6.8310   -6.0290   -0.7590 hc        1 MOL      0.070849
    112 N10        -3.2500   -3.3720   -2.1210 n         1 MOL     -0.058878
    113 C35        -2.4000   -4.3230   -2.7350 c3        1 MOL     -0.401840
    114 C36        -0.9090   -4.1490   -2.4690 c         1 MOL      0.469040
    115 O17        -0.1370   -4.6650   -3.2640 o         1 MOL     -0.536201
    116 C37        -2.7040   -4.5040   -4.2110 c3        1 MOL      0.526444
    117 C38        -2.7060   -3.1950   -4.9980 c3        1 MOL     -0.265093
    118 O18        -3.9700   -5.1300   -4.4200 oh        1 MOL     -0.634043
    119 H53        -3.7190   -2.7660   -2.7730 hn        1 MOL      0.217493
    120 H54        -2.5910   -5.2580   -2.2090 h1        1 MOL      0.158605
    121 H55        -2.0370   -5.1850   -4.7340 h1        1 MOL     -0.004145
    122 H56        -3.9450   -5.9810   -3.9850 ho        1 MOL      0.359029
    123 H57        -1.7580   -2.6520   -4.9490 hc        1 MOL      0.074517
    124 H58        -2.9110   -3.5160   -6.0240 hc        1 MOL      0.074517
    125 H59        -3.5330   -2.5410   -4.7180 hc        1 MOL      0.074517
    126 N11        -0.4920   -3.3060   -1.5370 n         1 MOL     -0.347033
    127 C39         0.9290   -2.8250   -1.2420 c3        1 MOL      0.483944
    128 C40         1.4670   -1.8890   -2.3960 c         1 MOL      0.190113
    129 O19         0.9700   -1.9140   -3.5040 o         1 MOL     -0.455387
    130 C41         1.8330   -3.9930   -0.8700 c3        1 MOL      0.168705
    131 C42         1.8470   -4.2890    0.6130 c3        1 MOL     -0.359993
    132 O20         3.1520   -3.8030   -1.3500 oh        1 MOL     -0.570947
    133 H60        -1.1820   -2.9330   -0.9000 hn        1 MOL      0.186259
    134 H61         0.9680   -2.1700   -0.3710 h1        1 MOL     -0.068032
    135 H62         1.5490   -4.8650   -1.4690 h1        1 MOL      0.035975
    136 H63         3.5880   -4.5460   -0.9380 ho        1 MOL      0.393787
    137 H64         2.3040   -5.2550    0.8050 hc        1 MOL      0.076470
    138 H65         2.4080   -3.5650    1.1960 hc        1 MOL      0.076470
    139 H66         0.8250   -4.2300    0.9960 hc        1 MOL      0.076470
    140 N12         2.5480   -1.1350   -2.1320 n         1 MOL     -0.115395
    141 C43         3.2700   -0.3080   -3.1850 c3        1 MOL      0.032347
    142 C44         3.8060    1.0410   -2.6120 c         1 MOL      0.660920
    143 O21         4.1890    1.9100   -3.3760 o         1 MOL     -0.660324
    144 C45         4.3220   -1.1670   -3.8420 c3        1 MOL     -0.143973
    145 C46         5.3960   -1.7580   -2.8990 c3        1 MOL     -0.065436
    146 C47         5.7400   -3.1760   -3.4820 c3        1 MOL     -0.004391
    147 C48         6.5550   -4.0350   -2.5340 c3        1 MOL      0.026010
    148 N13         7.8460   -3.4330   -2.1590 n4        1 MOL     -0.265884
    149 H67         3.0260   -1.3280   -1.2540 hn        1 MOL      0.279484
    150 H68         2.6300   -0.1540   -4.0520 h1        1 MOL      0.076098
    151 H69         4.7570   -0.5650   -4.6410 hc        1 MOL      0.068293
    152 H70         3.9300   -2.0320   -4.3810 hc        1 MOL      0.068293
    153 H71         5.0640   -1.7960   -1.8650 hc        1 MOL      0.002946
    154 H72         6.3450   -1.2050   -2.9390 hc        1 MOL      0.002946
    155 H73         6.2220   -3.0640   -4.4550 hc        1 MOL      0.031857
    156 H74         4.8120   -3.7290   -3.6640 hc        1 MOL      0.031857
    157 H75         6.6640   -5.0490   -2.9000 hx        1 MOL      0.052777
    158 H76         5.8850   -4.0950   -1.6750 hx        1 MOL      0.052777
    159 H77         8.4230   -3.1790   -2.9440 hn        1 MOL      0.295556
    160 H78         7.6240   -2.5820   -1.6630 hn        1 MOL      0.295556
    161 H79         8.3320   -3.9490   -1.4370 hn        1 MOL      0.295556
    162 N14         4.0340    1.1590   -1.3360 n         1 MOL     -0.190986
    163 C49         4.3960    2.4350   -0.6880 c3        1 MOL     -0.063913
    164 C50         5.8840    2.4410   -0.5150 c         1 MOL      0.183003
    165 O22         6.3720    1.5540    0.1220 o         1 MOL     -0.446573
    166 C51         3.7490    2.5460    0.7000 c3        1 MOL      0.671658
    167 C52         3.7460    3.9420    1.3340 c3        1 MOL     -0.604920
    168 C53         3.6500    5.1610    0.4710 c         1 MOL      0.738954
    169 O23         4.6980    5.6650    0.0580 o         1 MOL     -0.774015
    170 O24         2.5320    5.5710    0.0590 o         1 MOL     -0.774015
    171 H80         3.6870    0.3650   -0.8290 hn        1 MOL     -0.087006
    172 H81         4.0680    3.2300   -1.3660 h1        1 MOL      0.130398
    173 H82         4.2180    1.8940    1.4340 hc        1 MOL     -0.168458
    174 H83         2.7250    2.1780    0.5940 hc        1 MOL     -0.168458
    175 H84         4.7120    3.9910    1.8430 hc        1 MOL      0.181707
    176 H85         2.9840    4.0110    2.1060 hc        1 MOL      0.181707
    177 N15         6.5770    3.4720   -0.9530 n         1 MOL     -0.094298
    178 C54         8.0590    3.6800   -0.6570 c3        1 MOL     -0.138129
    179 H86         8.4720    2.7720   -0.2160 h1        1 MOL      0.080229
    180 H87         8.5880    3.9040   -1.5840 h1        1 MOL      0.080229
    181 H88         8.1780    4.5090    0.0410 h1        1 MOL      0.080229
    182 H89         6.1140    4.1290   -1.5690 hn        1 MOL      0.281181
    183 Ca1         0.1920    5.5560   -0.7540 Ca        1 MOL      1.653806
    184 O25         1.6670    4.3730   -2.7850 oh        1 MOL     -0.793789
    185 H90         1.6330    3.4640   -2.4610 ho        1 MOL      0.396873
    186 H91         1.8650    4.2830   -3.7160 ho        1 MOL      0.396873
    187 O26        -0.7560    7.6050   -2.3890 oh        1 MOL     -0.793789
    188 H92        -0.7070    8.5290   -2.1520 ho        1 MOL      0.396873
    189 H93        -0.6050    7.5870   -3.3350 ho        1 MOL      0.396873
    190 O27         2.3600    7.0020   -2.0650 oh        1 MOL     -0.793789
    191 H94         2.3210    7.8280   -1.5740 ho        1 MOL      0.396873
    192 H95         2.7610    6.3810   -1.4550 ho        1 MOL      0.396873
    193 O28        -1.6450    4.7130   -2.5070 oh        1 MOL     -0.793789
    194 H96        -2.2860    5.3030   -2.8990 ho        1 MOL      0.396873
    195 H97        -2.1730    4.0240   -2.1100 ho        1 MOL      0.396873
@<TRIPOS>BOND
     1    1    2 1   
     2    1    4 1   
     3    1    5 1   
     4    1    6 1   
     5    2    3 2   
     6    2    7 1   
     7    7    8 1   
     8    7   15 1   
     9    8    9 1   
    10    8   11 1   
    11    8   16 1   
    12    9   10 2   
    13    9   19 1   
    14   11   12 1   
    15   11   17 1   
    16   11   18 1   
    17   12   13 1   
    18   12   14 1   
    19   19   20 1   
    20   19   28 1   
    21   20   21 1   
    22   20   23 1   
    23   20   29 1   
    24   21   22 2   
    25   21   41 1   
    26   23   24 1   
    27   23   30 1   
    28   23   31 1   
    29   24   25 1   
    30   24   32 1   
    31   24   33 1   
    32   25   26 1   
    33   25   34 1   
    34   25   35 1   
    35   26   27 1   
    36   26   36 1   
    37   26   37 1   
    38   27   38 1   
    39   27   39 1   
    40   27   40 1   
    41   41   42 1   
    42   41   49 1   
    43   42   43 1   
    44   42   45 1   
    45   42   50 1   
    46   43   44 2   
    47   43   53 1   
    48   45   46 1   
    49   45   51 1   
    50   45   52 1   
    51   46   47 1   
    52   46   48 1   
    53   53   54 1   
    54   53   57 1   
    55   54   55 1   
    56   54   58 1   
    57   54   59 1   
    58   55   56 2   
    59   55   60 1   
    60   60   61 1   
    61   60   68 1   
    62   61   62 1   
    63   61   64 1   
    64   61   69 1   
    65   62   63 2   
    66   62   72 1   
    67   64   65 1   
    68   64   70 1   
    69   64   71 1   
    70   65   66 1   
    71   65   67 1   
    72   72   73 1   
    73   72   76 1   
    74   73   74 1   
    75   73   77 1   
    76   73   78 1   
    77   74   75 2   
    78   74   79 1   
    79   79   80 1   
    80   79   86 1   
    81   80   81 1   
    82   80   83 1   
    83   80   87 1   
    84   81   82 2   
    85   81   93 1   
    86   83   84 1   
    87   83   85 1   
    88   83   88 1   
    89   84   90 1   
    90   84   91 1   
    91   84   92 1   
    92   85   89 1   
    93   93   94 1   
    94   93  101 1   
    95   94   95 1   
    96   94   97 1   
    97   94  102 1   
    98   95   96 2   
    99   95  112 1   
   100   97   98 1   
   101   97   99 1   
   102   97  103 1   
   103   98  100 1   
   104   98  104 1   
   105   98  105 1   
   106   99  106 1   
   107   99  107 1   
   108   99  108 1   
   109  100  109 1   
   110  100  110 1   
   111  100  111 1   
   112  112  113 1   
   113  112  119 1   
   114  113  114 1   
   115  113  116 1   
   116  113  120 1   
   117  114  115 2   
   118  114  126 1   
   119  116  117 1   
   120  116  118 1   
   121  116  121 1   
   122  117  123 1   
   123  117  124 1   
   124  117  125 1   
   125  118  122 1   
   126  126  127 1   
   127  126  133 1   
   128  127  128 1   
   129  127  130 1   
   130  127  134 1   
   131  128  129 2   
   132  128  140 1   
   133  130  131 1   
   134  130  132 1   
   135  130  135 1   
   136  131  137 1   
   137  131  138 1   
   138  131  139 1   
   139  132  136 1   
   140  140  141 1   
   141  140  149 1   
   142  141  142 1   
   143  141  144 1   
   144  141  150 1   
   145  142  143 2   
   146  142  162 1   
   147  144  145 1   
   148  144  151 1   
   149  144  152 1   
   150  145  146 1   
   151  145  153 1   
   152  145  154 1   
   153  146  147 1   
   154  146  155 1   
   155  146  156 1   
   156  147  148 1   
   157  147  157 1   
   158  147  158 1   
   159  148  159 1   
   160  148  160 1   
   161  148  161 1   
   162  162  163 1   
   163  162  171 1   
   164  163  164 1   
   165  163  166 1   
   166  163  172 1   
   167  164  165 2   
   168  164  177 1   
   169  166  167 1   
   170  166  173 1   
   171  166  174 1   
   172  167  168 1   
   173  167  175 1   
   174  167  176 1   
   175  168  169 1   
   176  168  170 1   
   177  177  178 1   
   178  177  182 1   
   179  178  179 1   
   180  178  180 1   
   181  178  181 1   
   182  184  185 1   
   183  184  186 1   
   184  187  188 1   
   185  187  189 1   
   186  190  191 1   
   187  190  192 1   
   188  193  194 1   
   189  193  195 1   
@<TRIPOS>SUBSTRUCTURE
     1 MOL         1 TEMP              0 ****  ****    0 ROOT
