@<TRIPOS>MOLECULE
MOL
  192   187     1     0     0
SMALL
resp


@<TRIPOS>ATOM
      1 C1         10.1270    0.1230    1.5570 c3        1 MOL     -0.465897
      2 C2          8.7840    0.2130    0.8700 c         1 MOL      0.687629
      3 O1          7.7700    0.5400    1.4930 o         1 MOL     -0.615895
      4 H1         10.0980   -0.6660    2.3080 hc        1 MOL      0.117109
      5 H2         10.8970   -0.1070    0.8210 hc        1 MOL      0.117109
      6 H3         10.3550    1.0740    2.0380 hc        1 MOL      0.117109
      7 N1          8.7480   -0.0670   -0.4640 n         1 MOL     -0.433420
      8 C3          7.4650   -0.3020   -1.1720 c3        1 MOL      0.021139
      9 C4          6.9860   -1.7530   -1.1150 c         1 MOL      0.454585
     10 O2          6.7290   -2.3960   -2.1670 o         1 MOL     -0.430806
     11 C5          7.5660    0.2080   -2.6070 c3        1 MOL     -0.271214
     12 C6          8.8410   -0.2560   -3.4130 c         1 MOL      0.662712
     13 O3          9.7790   -0.9360   -2.8480 o         1 MOL     -0.606772
     14 O4          9.0140    0.0760   -4.6240 o         1 MOL     -0.606772
     15 H4          9.5990   -0.3870   -0.8940 hn        1 MOL      0.245067
     16 H5          6.6790    0.2640   -0.6660 h1        1 MOL      0.121460
     17 H6          7.4970    1.2920   -2.4440 hc        1 MOL      0.096915
     18 H7          6.6420   -0.0720   -3.1090 hc        1 MOL      0.096915
     19 N2          6.7920   -2.3770    0.0400 n         1 MOL     -0.383091
     20 C7          6.1680   -3.7330    0.2510 c3        1 MOL      0.025569
     21 C8          4.7350   -3.8510   -0.3580 c         1 MOL      0.485388
     22 O5          4.5350   -4.8650   -0.9770 o         1 MOL     -0.522694
     23 C9          6.1130   -3.9760    1.7680 c3        1 MOL      0.093767
     24 C10         7.4950   -3.9210    2.3590 c3        1 MOL     -0.004724
     25 C11         7.5800   -4.5350    3.7120 c3        1 MOL     -0.045369
     26 C12         8.9880   -4.4990    4.1960 c3        1 MOL      0.130716
     27 N3          9.1240   -4.9340    5.6270 n4        1 MOL     -0.296268
     28 H8          7.1680   -1.8620    0.8250 hn        1 MOL      0.156522
     29 H9          6.8360   -4.5100   -0.0950 h1        1 MOL      0.092638
     30 H10         5.6980   -4.9510    2.0310 hc        1 MOL     -0.011845
     31 H11         5.4870   -3.2590    2.2960 hc        1 MOL     -0.011845
     32 H12         7.8110   -2.8860    2.4490 hc        1 MOL      0.028662
     33 H13         8.1970   -4.4710    1.7210 hc        1 MOL      0.028662
     34 H14         7.3740   -5.6070    3.6560 hc        1 MOL      0.032143
     35 H15         7.0090   -4.0260    4.4770 hc        1 MOL      0.032143
     36 H16         9.3520   -3.4780    4.1180 hx        1 MOL      0.042756
     37 H17         9.5980   -5.1710    3.5860 hx        1 MOL      0.042756
     38 H18        10.0250   -4.6690    6.0000 hn        1 MOL      0.247982
     39 H19         8.4780   -4.4500    6.2390 hn        1 MOL      0.247982
     40 H20         9.0120   -5.9340    5.7070 hn        1 MOL      0.247982
     41 N4          3.7670   -2.9000   -0.2860 n         1 MOL     -0.425650
     42 C13         3.7420   -1.6280    0.5170 c3        1 MOL     -0.012308
     43 C14         3.8130   -0.4260   -0.4010 c         1 MOL      0.146709
     44 O6          3.8750   -0.5460   -1.6280 o         1 MOL     -0.361879
     45 C15         2.4630   -1.6720    1.3570 c3        1 MOL     -0.037231
     46 C16         1.1160   -2.0300    0.7810 c         1 MOL      0.513621
     47 O7          0.8390   -1.5370   -0.3290 o         1 MOL     -0.581121
     48 O8          0.4320   -2.9340    1.2610 o         1 MOL     -0.581121
     49 H21         3.0660   -2.9740   -1.0070 hn        1 MOL      0.385700
     50 H22         4.6260   -1.5700    1.1570 h1        1 MOL      0.144575
     51 H23         2.3650   -0.7150    1.8490 hc        1 MOL      0.017771
     52 H24         2.6900   -2.2940    2.2260 hc        1 MOL      0.017771
     53 N5          3.9910    0.8180    0.1630 n         1 MOL     -0.360380
     54 C17         4.1590    2.0560   -0.5670 c3        1 MOL      0.106186
     55 C18         2.7800    2.6220   -1.0600 c         1 MOL      0.443744
     56 O9          1.7470    2.0210   -0.7900 o         1 MOL     -0.548592
     57 H25         3.8000    0.8120    1.1480 hn        1 MOL      0.262595
     58 H26         4.9700    1.8820   -1.2590 h1        1 MOL      0.035893
     59 H27         4.5720    2.7600    0.1540 h1        1 MOL      0.035893
     60 N6          2.8050    3.7360   -1.8150 n         1 MOL     -0.395281
     61 C19         1.6720    4.6330   -2.2470 c3        1 MOL      0.181978
     62 C20         2.0050    6.1620   -2.2560 c         1 MOL      0.467952
     63 O10         3.1090    6.4690   -2.5280 o         1 MOL     -0.496719
     64 C21         1.3400    4.3180   -3.7330 c3        1 MOL     -0.269481
     65 C22         0.9000    2.8420   -3.8270 c         1 MOL      0.654263
     66 O11         1.4280    2.0910   -4.6560 o         1 MOL     -0.648417
     67 O12        -0.0730    2.4990   -3.1070 o         1 MOL     -0.648417
     68 H28         3.7690    3.9980   -1.9370 hn        1 MOL      0.262089
     69 H29         0.8290    4.4200   -1.5830 h1        1 MOL      0.041438
     70 H30         2.1910    4.5330   -4.3860 hc        1 MOL      0.089668
     71 H31         0.4410    4.9030   -3.9280 hc        1 MOL      0.089668
     72 N7          1.0220    7.0560   -2.0440 n         1 MOL     -0.471393
     73 C23        -0.4370    6.9400   -1.9720 c3        1 MOL      0.013842
     74 C24        -0.9020    6.4300   -0.5670 c         1 MOL      0.558165
     75 O13        -0.2730    6.6110    0.4480 o         1 MOL     -0.510073
     76 H32         1.3290    8.0170   -2.0040 hn        1 MOL      0.311854
     77 H33        -0.8270    6.3110   -2.7650 h1        1 MOL      0.058603
     78 H34        -0.9420    7.9000   -2.1210 h1        1 MOL      0.058603
     79 N8         -2.0210    5.7070   -0.5800 n         1 MOL     -0.538969
     80 C25        -2.5120    4.9180    0.5250 c3        1 MOL      0.030221
     81 C26        -1.5450    3.7690    0.8460 c         1 MOL      1.165477
     82 O14        -1.1590    3.0200   -0.1010 o         1 MOL     -0.930537
     83 C27        -3.8900    4.2980    0.2320 c3        1 MOL      0.361360
     84 C28        -4.9320    5.2930    0.2000 c3        1 MOL     -0.243347
     85 O15        -4.3050    3.3140    1.2060 oh        1 MOL     -0.657712
     86 H35        -2.5190    5.6660   -1.4620 hn        1 MOL      0.269065
     87 H36        -2.6120    5.5000    1.4370 h1        1 MOL      0.027643
     88 H37        -3.8140    3.7560   -0.7110 h1        1 MOL      0.039261
     89 H38        -4.7250    3.8970    1.8400 ho        1 MOL      0.365855
     90 H39        -5.8500    4.8800   -0.2220 hc        1 MOL      0.069341
     91 H40        -5.0910    5.6170    1.2290 hc        1 MOL      0.069341
     92 H41        -4.6940    6.2120   -0.3310 hc        1 MOL      0.069341
     93 N9         -1.1230    3.7040    2.0810 n         1 MOL     -0.983026
     94 C29        -0.3290    2.6500    2.7930 c3        1 MOL      0.502389
     95 C30        -0.8310    1.1990    2.3840 c         1 MOL      0.062330
     96 O16        -0.2000    0.5890    1.4700 o         1 MOL     -0.509202
     97 C31         1.1890    2.8440    2.5360 c3        1 MOL      0.108747
     98 C32         1.7200    4.2380    2.9010 c3        1 MOL      0.072412
     99 C33         2.0020    1.8260    3.3300 c3        1 MOL     -0.590373
    100 C34         3.1190    4.5740    2.5220 c3        1 MOL     -0.283296
    101 H42        -1.3430    4.4130    2.7640 hn        1 MOL      0.356234
    102 H43        -0.4640    2.6950    3.8650 h1        1 MOL     -0.031771
    103 H44         1.3470    2.7530    1.4630 hc        1 MOL      0.162598
    104 H45         1.4860    4.4180    3.9530 hc        1 MOL     -0.021725
    105 H46         0.9820    4.8690    2.4010 hc        1 MOL     -0.021725
    106 H47         1.4420    0.8920    3.4140 hc        1 MOL      0.145129
    107 H48         2.9590    1.6180    2.8400 hc        1 MOL      0.145129
    108 H49         2.1150    2.2190    4.3340 hc        1 MOL      0.145129
    109 H50         3.2890    5.6380    2.7080 hc        1 MOL      0.079154
    110 H51         3.7350    3.9950    3.2170 hc        1 MOL      0.079154
    111 H52         3.3040    4.1720    1.5250 hc        1 MOL      0.079154
    112 N10        -1.8290    0.7000    3.0630 n         1 MOL     -0.025668
    113 C35        -2.2810   -0.6970    2.9270 c3        1 MOL     -0.229509
    114 C36        -3.8080   -0.8360    2.9190 c         1 MOL      0.474217
    115 O17        -4.2850   -1.8550    3.3240 o         1 MOL     -0.565213
    116 C37        -1.4470   -1.5410    3.9420 c3        1 MOL      0.478860
    117 C38        -1.7460   -1.0230    5.3380 c3        1 MOL     -0.308280
    118 O18        -0.0900   -1.5570    3.6370 oh        1 MOL     -0.544566
    119 H53        -2.3820    1.2530    3.7060 hn        1 MOL      0.193106
    120 H54        -2.0610   -0.9840    1.8980 h1        1 MOL      0.152411
    121 H55        -1.7160   -2.5970    3.9410 h1        1 MOL      0.000346
    122 H56        -0.0850   -2.0990    2.8360 ho        1 MOL      0.285346
    123 H57        -2.8140   -1.0230    5.5450 hc        1 MOL      0.065257
    124 H58        -1.2400   -1.6800    6.0410 hc        1 MOL      0.065257
    125 H59        -1.4440    0.0120    5.4900 hc        1 MOL      0.065257
    126 N11        -4.6270    0.1750    2.6390 n         1 MOL     -0.170260
    127 C39        -6.0860    0.0640    2.6920 c3        1 MOL      0.107787
    128 C40        -6.6140   -0.3980    1.3800 c         1 MOL      0.282475
    129 O19        -6.9690    0.4510    0.5450 o         1 MOL     -0.487002
    130 C41        -6.7920    1.3640    3.1930 c3        1 MOL      0.321531
    131 C42        -8.3020    1.2390    3.1790 c3        1 MOL     -0.417023
    132 O20        -6.3140    1.5230    4.5600 oh        1 MOL     -0.691802
    133 H60        -4.1940    1.0640    2.4160 hn        1 MOL      0.195619
    134 H61        -6.2960   -0.7460    3.4070 h1        1 MOL      0.052663
    135 H62        -6.4270    2.1010    2.4850 h1        1 MOL      0.035094
    136 H63        -7.0440    1.7240    5.1380 ho        1 MOL      0.431436
    137 H64        -8.5760    0.7250    4.0920 hc        1 MOL      0.108970
    138 H65        -8.6930    2.2550    3.2440 hc        1 MOL      0.108970
    139 H66        -8.7500    0.7810    2.2940 hc        1 MOL      0.108970
    140 N12        -6.6200   -1.7050    1.2290 n         1 MOL     -0.490886
    141 C43        -6.5280   -2.3450   -0.0800 c3        1 MOL      0.330800
    142 C44        -5.2400   -2.0450   -0.8020 c         1 MOL      0.466895
    143 O21        -4.6140   -1.0340   -0.5960 o         1 MOL     -0.482111
    144 C45        -7.7430   -2.1250   -0.9270 c3        1 MOL     -0.483888
    145 C46        -9.0680   -2.2020   -0.2210 c3        1 MOL     -0.281868
    146 C47       -10.2600   -2.1520   -1.1620 c3        1 MOL      0.218787
    147 C48       -11.6460   -2.1970   -0.4080 c3        1 MOL     -0.187812
    148 N13       -12.4360   -3.4480   -0.6090 n4        1 MOL     -0.113528
    149 H67        -6.3180   -2.2230    2.0340 hn        1 MOL      0.321004
    150 H68        -6.3920   -3.4140    0.0920 h1        1 MOL     -0.001404
    151 H69        -7.7870   -2.7820   -1.8000 hc        1 MOL      0.161373
    152 H70        -7.6140   -1.1610   -1.4080 hc        1 MOL      0.161373
    153 H71        -9.0370   -1.2970    0.3860 hc        1 MOL      0.132732
    154 H72        -9.1540   -3.0490    0.4680 hc        1 MOL      0.132732
    155 H73       -10.1880   -2.9080   -1.9330 hc        1 MOL      0.023182
    156 H74       -10.2540   -1.2560   -1.7780 hc        1 MOL      0.023182
    157 H75       -12.2130   -1.3950   -0.8790 hx        1 MOL      0.121467
    158 H76       -11.4890   -1.9760    0.6450 hx        1 MOL      0.121467
    159 H77       -13.3610   -3.3210   -0.2210 hn        1 MOL      0.199522
    160 H78       -12.5160   -3.8590   -1.5330 hn        1 MOL      0.199522
    161 H79       -12.0740   -4.1810   -0.0230 hn        1 MOL      0.199522
    162 N14        -4.7880   -3.0150   -1.5250 n         1 MOL     -0.501454
    163 C49        -3.5570   -3.0100   -2.3040 c3        1 MOL      0.279603
    164 C50        -2.2590   -2.6520   -1.5130 c         1 MOL      0.344167
    165 O22        -1.6040   -1.6970   -1.9190 o         1 MOL     -0.583176
    166 C51        -3.4860   -4.3170   -3.1350 c3        1 MOL     -0.065254
    167 C52        -4.5110   -4.3500   -4.2580 c3        1 MOL     -0.262540
    168 C53        -4.3660   -5.5670   -5.1560 c         1 MOL      0.730207
    169 O23        -5.2300   -6.4850   -4.9640 o         1 MOL     -0.638800
    170 O24        -3.5340   -5.6900   -6.0520 o         1 MOL     -0.638800
    171 H80        -5.3710   -3.8430   -1.5800 hn        1 MOL      0.311050
    172 H81        -3.6910   -2.2780   -3.1010 h1        1 MOL      0.064461
    173 H82        -3.6970   -5.1930   -2.5300 hc        1 MOL      0.061335
    174 H83        -2.5290   -4.4020   -3.6450 hc        1 MOL      0.061335
    175 H84        -4.3050   -3.5130   -4.9350 hc        1 MOL      0.030075
    176 H85        -5.5380   -4.1880   -3.9260 hc        1 MOL      0.030075
    177 N15        -1.8530   -3.2020   -0.3820 n         1 MOL     -0.163047
    178 C54        -2.2860   -4.5060    0.1060 c3        1 MOL     -0.062526
    179 H86        -2.7840   -4.3860    1.0670 h1        1 MOL      0.030623
    180 H87        -2.9770   -4.9510   -0.6100 h1        1 MOL      0.030623
    181 H88        -1.4190   -5.1560    0.2250 h1        1 MOL      0.030623
    182 H89        -1.0550   -2.7900    0.0670 hn        1 MOL      0.272369
    183 Ca1        -0.4600    0.6560   -1.2270 Ca        1 MOL      1.828247
    184 O25         1.5680   -0.1050   -3.0180 oh        1 MOL     -0.913893
    185 H90         1.7210    0.6500   -3.5830 ho        1 MOL      0.429345
    186 H91         2.4220   -0.2880   -2.6270 ho        1 MOL      0.429345
    187 O26        -2.9700    0.8510    0.2480 oh        1 MOL     -0.913893
    188 H92        -3.4250    1.6860    0.3570 ho        1 MOL      0.429345
    189 H93        -3.5910    0.3060   -0.2520 ho        1 MOL      0.429345
    190 O27        -2.6940    0.8770   -2.6510 oh        1 MOL     -0.913893
    191 H94        -2.6700    0.9740   -3.5960 ho        1 MOL      0.429345
    192 H95        -3.5570    1.2170   -2.4020 ho        1 MOL      0.429345
@<TRIPOS>BOND
     1    1    2 1   
     2    1    4 1   
     3    1    5 1   
     4    1    6 1   
     5    2    3 2   
     6    2    7 1   
     7    7    8 1   
     8    7   15 1   
     9    8    9 1   
    10    8   11 1   
    11    8   16 1   
    12    9   10 2   
    13    9   19 1   
    14   11   12 1   
    15   11   17 1   
    16   11   18 1   
    17   12   13 1   
    18   12   14 1   
    19   19   20 1   
    20   19   28 1   
    21   20   21 1   
    22   20   23 1   
    23   20   29 1   
    24   21   22 2   
    25   21   41 1   
    26   23   24 1   
    27   23   30 1   
    28   23   31 1   
    29   24   25 1   
    30   24   32 1   
    31   24   33 1   
    32   25   26 1   
    33   25   34 1   
    34   25   35 1   
    35   26   27 1   
    36   26   36 1   
    37   26   37 1   
    38   27   38 1   
    39   27   39 1   
    40   27   40 1   
    41   41   42 1   
    42   41   49 1   
    43   42   43 1   
    44   42   45 1   
    45   42   50 1   
    46   43   44 2   
    47   43   53 1   
    48   45   46 1   
    49   45   51 1   
    50   45   52 1   
    51   46   47 1   
    52   46   48 1   
    53   53   54 1   
    54   53   57 1   
    55   54   55 1   
    56   54   58 1   
    57   54   59 1   
    58   55   56 2   
    59   55   60 1   
    60   60   61 1   
    61   60   68 1   
    62   61   62 1   
    63   61   64 1   
    64   61   69 1   
    65   62   63 2   
    66   62   72 1   
    67   64   65 1   
    68   64   70 1   
    69   64   71 1   
    70   65   66 1   
    71   65   67 1   
    72   72   73 1   
    73   72   76 1   
    74   73   74 1   
    75   73   77 1   
    76   73   78 1   
    77   74   75 2   
    78   74   79 1   
    79   79   80 1   
    80   79   86 1   
    81   80   81 1   
    82   80   83 1   
    83   80   87 1   
    84   81   82 2   
    85   81   93 1   
    86   83   84 1   
    87   83   85 1   
    88   83   88 1   
    89   84   90 1   
    90   84   91 1   
    91   84   92 1   
    92   85   89 1   
    93   93   94 1   
    94   93  101 1   
    95   94   95 1   
    96   94   97 1   
    97   94  102 1   
    98   95   96 2   
    99   95  112 1   
   100   97   98 1   
   101   97   99 1   
   102   97  103 1   
   103   98  100 1   
   104   98  104 1   
   105   98  105 1   
   106   99  106 1   
   107   99  107 1   
   108   99  108 1   
   109  100  109 1   
   110  100  110 1   
   111  100  111 1   
   112  112  113 1   
   113  112  119 1   
   114  113  114 1   
   115  113  116 1   
   116  113  120 1   
   117  114  115 2   
   118  114  126 1   
   119  116  117 1   
   120  116  118 1   
   121  116  121 1   
   122  117  123 1   
   123  117  124 1   
   124  117  125 1   
   125  118  122 1   
   126  126  127 1   
   127  126  133 1   
   128  127  128 1   
   129  127  130 1   
   130  127  134 1   
   131  128  129 2   
   132  128  140 1   
   133  130  131 1   
   134  130  132 1   
   135  130  135 1   
   136  131  137 1   
   137  131  138 1   
   138  131  139 1   
   139  132  136 1   
   140  140  141 1   
   141  140  149 1   
   142  141  142 1   
   143  141  144 1   
   144  141  150 1   
   145  142  143 2   
   146  142  162 1   
   147  144  145 1   
   148  144  151 1   
   149  144  152 1   
   150  145  146 1   
   151  145  153 1   
   152  145  154 1   
   153  146  147 1   
   154  146  155 1   
   155  146  156 1   
   156  147  148 1   
   157  147  157 1   
   158  147  158 1   
   159  148  159 1   
   160  148  160 1   
   161  148  161 1   
   162  162  163 1   
   163  162  171 1   
   164  163  164 1   
   165  163  166 1   
   166  163  172 1   
   167  164  165 2   
   168  164  177 1   
   169  166  167 1   
   170  166  173 1   
   171  166  174 1   
   172  167  168 1   
   173  167  175 1   
   174  167  176 1   
   175  168  169 1   
   176  168  170 1   
   177  177  178 1   
   178  177  182 1   
   179  178  179 1   
   180  178  180 1   
   181  178  181 1   
   182  184  185 1   
   183  184  186 1   
   184  187  188 1   
   185  187  189 1   
   186  190  191 1   
   187  190  192 1   
@<TRIPOS>SUBSTRUCTURE
     1 MOL         1 TEMP              0 ****  ****    0 ROOT
