@<TRIPOS>MOLECULE
MOL
  178   175     1     0     0
SMALL
resp


@<TRIPOS>ATOM
      1 C1          6.0490    7.9850   -1.8240 c3        1 MOL     -0.294306
      2 C2          5.0670    6.7900   -1.8510 c         1 MOL      0.574072
      3 O1          3.8200    6.9610   -1.6500 o         1 MOL     -0.579083
      4 H1          5.5820    8.8260   -1.3110 hc        1 MOL      0.074064
      5 H2          6.9590    7.6980   -1.2970 hc        1 MOL      0.074064
      6 H3          6.2970    8.2760   -2.8450 hc        1 MOL      0.074064
      7 N1          5.5060    5.5590   -1.9920 n         1 MOL     -0.493301
      8 C3          6.8520    5.1020   -2.3130 c3        1 MOL      0.135427
      9 C4          7.7990    4.8350   -1.1150 c         1 MOL      0.411533
     10 O2          8.9570    4.4980   -1.3790 o         1 MOL     -0.536124
     11 C5          6.6570    3.8390   -3.1810 c3        1 MOL     -0.350947
     12 C6          6.0000    2.6600   -2.4580 c         1 MOL      0.791232
     13 O3          5.6930    1.7310   -3.2080 o         1 MOL     -0.739392
     14 O4          5.7510    2.5940   -1.1940 o         1 MOL     -0.739392
     15 H4          4.7570    4.9000   -1.8580 hn        1 MOL      0.320475
     16 H5          7.4370    5.8010   -2.9170 h1        1 MOL      0.080728
     17 H6          7.6090    3.5660   -3.6490 hc        1 MOL      0.102673
     18 H7          6.0960    4.0350   -4.0840 hc        1 MOL      0.102673
     19 N2          7.3350    5.0620    0.1620 n         1 MOL     -0.318754
     20 C7          8.1840    5.1390    1.3860 c3        1 MOL      0.064619
     21 C8          8.7740    3.7630    1.7790 c         1 MOL      0.373521
     22 O5          9.6650    3.6840    2.6250 o         1 MOL     -0.557325
     23 C9          7.3170    5.5250    2.6370 c3        1 MOL     -0.347841
     24 H8          6.3390    5.0580    0.3110 hn        1 MOL      0.283387
     25 H9          9.0620    5.7710    1.2830 h1        1 MOL      0.081361
     26 H10         6.5790    4.7340    2.7770 hc        1 MOL      0.113207
     27 H11         7.9190    5.6990    3.5340 hc        1 MOL      0.113207
     28 H12         6.9110    6.5250    2.4720 hc        1 MOL      0.113207
     29 N3          8.2290    2.6870    1.2610 n         1 MOL     -0.054246
     30 C10         8.5410    1.2970    1.6320 c3        1 MOL     -0.029600
     31 C11         8.5920    0.4320    0.3780 c         1 MOL      0.395434
     32 O6          7.9580    0.7020   -0.6410 o         1 MOL     -0.474414
     33 C12         7.5520    0.6820    2.6780 c3        1 MOL     -0.088426
     34 C13         6.1250    0.8860    2.2350 c         1 MOL      0.693122
     35 O7          5.6380    0.2120    1.3180 o         1 MOL     -0.688654
     36 O8          5.4400    1.7350    2.8770 o         1 MOL     -0.688654
     37 H13         7.4440    2.8650    0.6550 hn        1 MOL      0.140297
     38 H14         9.5340    1.2840    2.0790 h1        1 MOL      0.038918
     39 H15         7.6000    1.0950    3.6930 hc        1 MOL      0.027309
     40 H16         7.6720   -0.3990    2.7350 hc        1 MOL      0.027309
     41 N4          9.2620   -0.7010    0.4210 n         1 MOL     -0.332117
     42 C14         9.3690   -1.7590   -0.5820 c3        1 MOL      0.014395
     43 C15         8.0770   -2.6320   -0.7220 c         1 MOL      0.487512
     44 O9          6.9930   -2.0910   -0.6060 o         1 MOL     -0.514166
     45 H17         9.4920   -0.9800    1.3670 hn        1 MOL      0.259067
     46 H18        10.2270   -2.4300   -0.4920 h1        1 MOL      0.049600
     47 H19         9.6780   -1.2840   -1.5120 h1        1 MOL      0.049600
     48 N5          8.1160   -3.9930   -0.8760 n         1 MOL     -0.569651
     49 C16         6.9850   -4.8990   -1.1150 c3        1 MOL      0.285377
     50 C17         5.7160   -4.5700   -0.2810 c         1 MOL      0.428208
     51 O10         5.7410   -4.4260    0.9640 o         1 MOL     -0.426200
     52 C18         7.5020   -6.3120   -0.7350 c3        1 MOL     -0.215028
     53 C19         6.4160   -7.3550   -0.9200 c         1 MOL      0.533427
     54 N6          6.5380   -8.2920   -1.8870 n         1 MOL     -0.771595
     55 O11         5.4040   -7.4250   -0.1690 o         1 MOL     -0.484134
     56 H20         9.0320   -4.4340   -0.9160 hn        1 MOL      0.294667
     57 H21         6.7450   -4.8670   -2.1730 h1        1 MOL     -0.012308
     58 H22         7.7540   -6.3920    0.3260 hc        1 MOL      0.078017
     59 H23         8.3530   -6.4970   -1.3820 hc        1 MOL      0.078017
     60 H24         7.4120   -8.3430   -2.3880 hn        1 MOL      0.365522
     61 H25         5.8860   -9.0520   -1.7330 hn        1 MOL      0.365522
     62 N7          4.5490   -4.5540   -1.0190 n         1 MOL     -0.493720
     63 C20         3.2110   -4.2820   -0.4630 c3        1 MOL     -0.065159
     64 C21         3.0700   -2.9140    0.1250 c         1 MOL      0.813253
     65 O12         3.7690   -2.0070   -0.3470 o         1 MOL     -0.713747
     66 H26         4.6780   -4.3830   -2.0050 hn        1 MOL      0.288254
     67 H27         2.9620   -5.0060    0.3110 h1        1 MOL      0.112676
     68 H28         2.4720   -4.3450   -1.2650 h1        1 MOL      0.112676
     69 N8          2.2480   -2.5740    1.0910 n         1 MOL     -0.601445
     70 C22         1.2360   -3.4300    1.7780 c3        1 MOL     -0.096974
     71 C23        -0.1410   -2.7260    1.8590 c         1 MOL      0.493048
     72 O13        -0.9930   -3.1650    2.6460 o         1 MOL     -0.559474
     73 C24         1.7470   -3.6960    3.2060 c3        1 MOL      0.426135
     74 C25         2.7890   -4.8170    3.2590 c3        1 MOL     -0.371049
     75 O14         2.2730   -2.5320    3.7970 oh        1 MOL     -0.630071
     76 H29         2.3420   -1.5960    1.3190 hn        1 MOL      0.327527
     77 H30         1.1070   -4.3240    1.1680 h1        1 MOL      0.092749
     78 H31         0.9860   -4.1000    3.8730 h1        1 MOL      0.041739
     79 H32         3.1970   -2.4430    3.5470 ho        1 MOL      0.412304
     80 H33         2.2330   -5.6830    2.8940 hc        1 MOL      0.085036
     81 H34         3.6230   -4.6420    2.5660 hc        1 MOL      0.085036
     82 H35         3.0620   -4.9770    4.2970 hc        1 MOL      0.085036
     83 N9         -0.4080   -1.6960    1.1000 n         1 MOL     -0.289377
     84 C26        -1.6220   -0.8560    1.1150 c3        1 MOL     -0.041222
     85 C27        -2.0710   -0.6630   -0.3870 c         1 MOL      0.466697
     86 O15        -1.2320   -0.6080   -1.2630 o         1 MOL     -0.526784
     87 C28        -1.3690    0.5090    1.8400 c3        1 MOL      0.046365
     88 C29        -0.7090    0.2950    3.2360 c3        1 MOL      0.116890
     89 C30        -2.6710    1.2010    2.0280 c3        1 MOL     -0.351890
     90 C31        -0.4830    1.4900    4.1750 c3        1 MOL     -0.313664
     91 H36         0.3680   -1.5350    0.4770 hn        1 MOL      0.198475
     92 H37        -2.4380   -1.4100    1.5660 h1        1 MOL      0.121347
     93 H38        -0.6980    1.0620    1.1750 hc        1 MOL     -0.012045
     94 H39         0.2860   -0.1140    3.0450 hc        1 MOL      0.016853
     95 H40        -1.2140   -0.5150    3.7710 hc        1 MOL      0.016853
     96 H41        -3.3730    1.0400    1.1990 hc        1 MOL      0.110581
     97 H42        -3.1940    0.7450    2.8690 hc        1 MOL      0.110581
     98 H43        -2.5110    2.2110    2.4190 hc        1 MOL      0.110581
     99 H44        -1.4090    1.9870    4.4570 hc        1 MOL      0.075611
    100 H45         0.0540    1.1650    5.0700 hc        1 MOL      0.075611
    101 H46         0.1060    2.1770    3.5650 hc        1 MOL      0.075611
    102 N10        -3.4000   -0.7890   -0.7060 n         1 MOL     -0.436345
    103 C32        -4.5360   -1.2630    0.0960 c3        1 MOL      0.639944
    104 C33        -5.9200   -0.8630   -0.5520 c         1 MOL      0.132267
    105 O16        -6.0410   -0.5690   -1.7590 o         1 MOL     -0.467851
    106 C34        -4.5680   -2.8370    0.2560 c3        1 MOL     -0.228219
    107 C35        -4.2920   -3.6010   -1.0520 c         1 MOL      0.688863
    108 O17        -3.1330   -3.8830   -1.3750 o         1 MOL     -0.704109
    109 O18        -5.2000   -3.8900   -1.8590 o         1 MOL     -0.704109
    110 H47        -3.6100   -0.5480   -1.6760 hn        1 MOL      0.263040
    111 H48        -4.4790   -0.8640    1.1120 h1        1 MOL     -0.109941
    112 H49        -5.5530   -3.1640    0.6010 hc        1 MOL      0.007212
    113 H50        -3.8080   -3.1720    0.9690 hc        1 MOL      0.007212
    114 N11        -6.9840   -1.1720    0.2380 n         1 MOL     -0.326299
    115 C36        -8.4360   -0.9860   -0.0740 c3        1 MOL      0.796524
    116 C37        -9.2770   -0.5100    1.1010 c         1 MOL      0.235615
    117 O19        -8.7840   -0.7750    2.1880 o         1 MOL     -0.465295
    118 C38        -8.8760   -2.4140   -0.5010 c3        1 MOL     -0.186270
    119 C39       -10.0630   -2.3610   -1.4220 ca        1 MOL      0.217414
    120 C40       -11.3090   -2.7690   -0.9590 ca        1 MOL     -0.249267
    121 C41        -9.9100   -1.9800   -2.7680 ca        1 MOL     -0.249267
    122 C42       -12.3990   -2.7850   -1.8400 ca        1 MOL     -0.040086
    123 C43       -10.9510   -1.9920   -3.6540 ca        1 MOL     -0.040086
    124 C44       -12.2260   -2.3570   -3.1970 ca        1 MOL     -0.235847
    125 H51        -6.8780   -1.3750    1.2240 hn        1 MOL      0.182627
    126 H52        -8.5120   -0.3410   -0.9410 h1        1 MOL     -0.088510
    127 H53        -9.0730   -3.0550    0.3600 hc        1 MOL      0.010086
    128 H54        -8.0170   -2.8430   -1.0260 hc        1 MOL      0.010086
    129 H55       -11.3770   -3.0390    0.0830 ha        1 MOL      0.143807
    130 H56        -8.9150   -1.7100   -3.1090 ha        1 MOL      0.143807
    131 H57       -13.3670   -3.1590   -1.5210 ha        1 MOL      0.086856
    132 H58       -10.7340   -1.5780   -4.6290 ha        1 MOL      0.086856
    133 H59       -13.0370   -2.3230   -3.9130 ha        1 MOL      0.112113
    134 N12       -10.5170    0.0290    0.9010 n         1 MOL     -0.195797
    135 C45       -10.8560    0.7770   -0.3180 c3        1 MOL     -0.008792
    136 C46        -9.7980    1.8470   -0.7060 c         1 MOL      0.617983
    137 O20        -9.3910    1.7940   -1.8240 o         1 MOL     -0.582447
    138 C47       -12.2180    1.4570   -0.0830 c3        1 MOL     -0.148550
    139 C48       -12.8010    0.6760    1.1190 c3        1 MOL      0.096862
    140 C49       -11.6150    0.0680    1.8360 c3        1 MOL     -0.199466
    141 H60       -10.8870    0.0600   -1.1370 h1        1 MOL      0.057915
    142 H61       -11.9010    2.4580    0.1930 hc        1 MOL      0.049175
    143 H62       -12.7900    1.5520   -1.0090 hc        1 MOL      0.049175
    144 H63       -13.4560    1.2250    1.7810 hc        1 MOL      0.001256
    145 H64       -13.5110   -0.0830    0.8100 hc        1 MOL      0.001256
    146 H65       -11.3670    0.5820    2.7630 h1        1 MOL      0.096665
    147 H66       -11.8660   -0.9540    2.1470 h1        1 MOL      0.096665
    148 N13        -9.1940    2.6150    0.2230 n         1 MOL     -0.533400
    149 C50        -8.0340    3.4640   -0.1210 c3        1 MOL      0.343680
    150 C51        -8.5700    4.8530   -0.5320 c         1 MOL      0.324043
    151 O21        -9.0070    5.5910    0.3230 o         1 MOL     -0.545133
    152 C52        -7.1030    3.5950    1.1390 c3        1 MOL     -0.168994
    153 C53        -6.3480    2.3200    1.5020 c3        1 MOL     -0.030652
    154 C54        -6.0760    2.1270    3.0070 c         1 MOL      0.706109
    155 O22        -5.7550    0.9460    3.3830 o         1 MOL     -0.704152
    156 O23        -6.2360    2.9750    3.8750 o         1 MOL     -0.704152
    157 H67        -9.5570    2.5540    1.1720 hn        1 MOL      0.335031
    158 H68        -7.4710    2.9870   -0.9220 h1        1 MOL      0.044225
    159 H69        -7.6550    3.9370    2.0170 hc        1 MOL      0.047380
    160 H70        -6.3680    4.3610    0.8850 hc        1 MOL      0.047380
    161 H71        -5.3610    2.4370    1.0620 hc        1 MOL     -0.067846
    162 H72        -6.7520    1.4480    0.9780 hc        1 MOL     -0.067846
    163 N14        -8.4870    5.2560   -1.7900 n         1 MOL     -0.286100
    164 C55        -7.9450    4.5590   -2.9580 c3        1 MOL     -0.225792
    165 H73        -8.6360    3.7740   -3.2640 h1        1 MOL      0.102441
    166 H74        -7.8150    5.2670   -3.7760 h1        1 MOL      0.102441
    167 H75        -6.9820    4.1160   -2.7030 h1        1 MOL      0.102441
    168 H76        -8.9320    6.1450   -2.0100 hn        1 MOL      0.254384
    169 Ca1         5.4090   -0.0500   -1.2530 Ca        1 MOL      1.730231
    170 O24         7.2020   -0.6300   -3.3240 oh        1 MOL     -0.813431
    171 H77         7.1250   -1.2270   -4.0670 ho        1 MOL      0.404960
    172 H78         8.1230   -0.3370   -3.3550 ho        1 MOL      0.404960
    173 O25         4.0760   -1.4410   -3.1730 oh        1 MOL     -0.813431
    174 H79         4.4350   -1.6700   -4.0310 ho        1 MOL      0.404960
    175 H80         3.1780   -1.7930   -3.1860 ho        1 MOL      0.404960
    176 O26         2.8730    0.9440   -0.7990 oh        1 MOL     -0.813431
    177 H81         2.4060    0.7460    0.0180 ho        1 MOL      0.404960
    178 H82         2.1830    1.0690   -1.4450 ho        1 MOL      0.404960
@<TRIPOS>BOND
     1    1    2 1   
     2    1    4 1   
     3    1    5 1   
     4    1    6 1   
     5    2    3 2   
     6    2    7 1   
     7    7    8 1   
     8    7   15 1   
     9    8    9 1   
    10    8   11 1   
    11    8   16 1   
    12    9   10 2   
    13    9   19 1   
    14   11   12 1   
    15   11   17 1   
    16   11   18 1   
    17   12   13 1   
    18   12   14 1   
    19   19   20 1   
    20   19   24 1   
    21   20   21 1   
    22   20   23 1   
    23   20   25 1   
    24   21   22 2   
    25   21   29 1   
    26   23   26 1   
    27   23   27 1   
    28   23   28 1   
    29   29   30 1   
    30   29   37 1   
    31   30   31 1   
    32   30   33 1   
    33   30   38 1   
    34   31   32 2   
    35   31   41 1   
    36   33   34 1   
    37   33   39 1   
    38   33   40 1   
    39   34   35 1   
    40   34   36 1   
    41   41   42 1   
    42   41   45 1   
    43   42   43 1   
    44   42   46 1   
    45   42   47 1   
    46   43   44 2   
    47   43   48 1   
    48   48   49 1   
    49   48   56 1   
    50   49   50 1   
    51   49   52 1   
    52   49   57 1   
    53   50   51 2   
    54   50   62 1   
    55   52   53 1   
    56   52   58 1   
    57   52   59 1   
    58   53   54 1   
    59   53   55 2   
    60   54   60 1   
    61   54   61 1   
    62   62   63 1   
    63   62   66 1   
    64   63   64 1   
    65   63   67 1   
    66   63   68 1   
    67   64   65 2   
    68   64   69 1   
    69   69   70 1   
    70   69   76 1   
    71   70   71 1   
    72   70   73 1   
    73   70   77 1   
    74   71   72 2   
    75   71   83 1   
    76   73   74 1   
    77   73   75 1   
    78   73   78 1   
    79   74   80 1   
    80   74   81 1   
    81   74   82 1   
    82   75   79 1   
    83   83   84 1   
    84   83   91 1   
    85   84   85 1   
    86   84   87 1   
    87   84   92 1   
    88   85   86 2   
    89   85  102 1   
    90   87   88 1   
    91   87   89 1   
    92   87   93 1   
    93   88   90 1   
    94   88   94 1   
    95   88   95 1   
    96   89   96 1   
    97   89   97 1   
    98   89   98 1   
    99   90   99 1   
   100   90  100 1   
   101   90  101 1   
   102  102  103 1   
   103  102  110 1   
   104  103  104 1   
   105  103  106 1   
   106  103  111 1   
   107  104  105 2   
   108  104  114 1   
   109  106  107 1   
   110  106  112 1   
   111  106  113 1   
   112  107  108 1   
   113  107  109 1   
   114  114  115 1   
   115  114  125 1   
   116  115  116 1   
   117  115  118 1   
   118  115  126 1   
   119  116  117 2   
   120  116  134 1   
   121  118  119 1   
   122  118  127 1   
   123  118  128 1   
   124  119  120 ar  
   125  119  121 ar  
   126  120  122 ar  
   127  120  129 1   
   128  121  123 ar  
   129  121  130 1   
   130  122  124 ar  
   131  122  131 1   
   132  123  124 ar  
   133  123  132 1   
   134  124  133 1   
   135  134  135 1   
   136  134  140 1   
   137  135  136 1   
   138  135  138 1   
   139  135  141 1   
   140  136  137 2   
   141  136  148 1   
   142  138  139 1   
   143  138  142 1   
   144  138  143 1   
   145  139  140 1   
   146  139  144 1   
   147  139  145 1   
   148  140  146 1   
   149  140  147 1   
   150  148  149 1   
   151  148  157 1   
   152  149  150 1   
   153  149  152 1   
   154  149  158 1   
   155  150  151 2   
   156  150  163 1   
   157  152  153 1   
   158  152  159 1   
   159  152  160 1   
   160  153  154 1   
   161  153  161 1   
   162  153  162 1   
   163  154  155 1   
   164  154  156 1   
   165  163  164 1   
   166  163  168 1   
   167  164  165 1   
   168  164  166 1   
   169  164  167 1   
   170  170  171 1   
   171  170  172 1   
   172  173  174 1   
   173  173  175 1   
   174  176  177 1   
   175  176  178 1   
@<TRIPOS>SUBSTRUCTURE
     1 MOL         1 TEMP              0 ****  ****    0 ROOT
