@<TRIPOS>MOLECULE
MOL
  181   177     1     0     0
SMALL
resp


@<TRIPOS>ATOM
      1 C1        -11.7920   -5.8010   -2.1570 c3        1 MOL     -0.384344
      2 C2        -10.7720   -5.3650   -1.1030 c         1 MOL      0.806867
      3 O1         -9.9340   -6.1570   -0.7050 o         1 MOL     -0.625091
      4 H1        -12.2000   -4.9210   -2.6540 hc        1 MOL      0.105060
      5 H2        -11.3040   -6.4400   -2.8940 hc        1 MOL      0.105060
      6 H3        -12.5990   -6.3530   -1.6750 hc        1 MOL      0.105060
      7 N1        -10.7430   -4.1530   -0.5240 n         1 MOL     -0.726818
      8 C3        -11.6550   -3.0310   -0.7060 c3        1 MOL      0.143439
      9 C4        -11.6600   -1.9970    0.4400 c         1 MOL      0.450143
     10 O2        -10.6640   -1.8150    1.1700 o         1 MOL     -0.482515
     11 C5        -11.3350   -2.3010   -1.9680 c3        1 MOL     -0.273630
     12 C6         -9.8090   -2.0830   -2.2230 c         1 MOL      0.657524
     13 O3         -9.3690   -2.2610   -3.3910 o         1 MOL     -0.610256
     14 O4         -8.9990   -1.7370   -1.2830 o         1 MOL     -0.610256
     15 H4         -9.9670   -3.9740    0.0920 hn        1 MOL      0.418766
     16 H5        -12.6330   -3.4740   -0.9010 h1        1 MOL      0.048286
     17 H6        -12.0120   -1.4560   -2.0350 hc        1 MOL      0.069003
     18 H7        -11.7660   -2.8880   -2.7790 hc        1 MOL      0.069003
     19 N2        -12.8640   -1.3080    0.6060 n         1 MOL     -0.562269
     20 C7        -13.1680   -0.1770    1.4990 c3        1 MOL      0.264819
     21 C8        -12.1070    0.9910    1.4030 c         1 MOL      0.520414
     22 O5        -12.4120    2.0250    0.8370 o         1 MOL     -0.575925
     23 C9        -13.4900   -0.7170    2.9610 c3        1 MOL     -0.373626
     24 H8        -13.6510   -1.5020    0.0020 hn        1 MOL      0.318726
     25 H9        -14.0660    0.3110    1.1230 h1        1 MOL      0.027470
     26 H10       -14.3880   -1.3470    2.9910 hc        1 MOL      0.105652
     27 H11       -12.6510   -1.2930    3.3430 hc        1 MOL      0.105652
     28 H12       -13.6710    0.1420    3.6130 hc        1 MOL      0.105652
     29 N3        -11.0020    0.8960    2.1840 n         1 MOL     -0.297890
     30 C10        -9.9230    1.9680    2.1940 c3        1 MOL     -0.160805
     31 C11        -9.1880    1.9810    0.8450 c         1 MOL      0.735174
     32 O6         -8.8980    0.9480    0.2930 o         1 MOL     -0.604043
     33 C12        -9.1230    1.8990    3.5020 c3        1 MOL      0.020660
     34 C13        -8.6020    0.6040    3.9230 c         1 MOL      0.712357
     35 O7         -7.8950    0.6080    4.9320 o         1 MOL     -0.701217
     36 O8         -8.8120   -0.4010    3.2500 o         1 MOL     -0.701217
     37 H13       -10.7440   -0.0250    2.5310 hn        1 MOL      0.160779
     38 H14       -10.4170    2.9480    2.1870 h1        1 MOL      0.076675
     39 H15        -9.6960    2.3880    4.2820 hc        1 MOL      0.003039
     40 H16        -8.2180    2.4860    3.3570 hc        1 MOL      0.003039
     41 N4         -8.6860    3.1680    0.4680 n         1 MOL     -0.579946
     42 C14        -7.7960    3.3310   -0.6740 c3        1 MOL      0.105799
     43 C15        -6.3980    2.9250   -0.4860 c         1 MOL      0.625284
     44 O9         -5.9270    2.8990    0.6650 o         1 MOL     -0.503611
     45 H17        -8.8890    3.9390    1.0870 hn        1 MOL      0.328389
     46 H18        -7.8220    4.3440   -1.0700 h1        1 MOL      0.041833
     47 H19        -8.0900    2.6650   -1.4980 h1        1 MOL      0.041833
     48 N5         -5.6880    2.6870   -1.6400 n         1 MOL     -0.618942
     49 C16        -4.4750    1.7850   -1.6320 c3        1 MOL      0.169143
     50 C17        -3.1230    2.4540   -1.9880 c         1 MOL      0.675443
     51 O10        -3.0150    3.2450   -2.9120 o         1 MOL     -0.556648
     52 C18        -4.7290    0.4260   -2.3870 c3        1 MOL     -0.351904
     53 C19        -5.8820   -0.4060   -1.9400 c         1 MOL      0.732016
     54 N6         -6.7870   -0.8690   -2.8080 n         1 MOL     -0.695345
     55 O11        -6.0770   -0.6900   -0.7440 o         1 MOL     -0.653098
     56 H20        -6.0640    2.9180   -2.5470 hn        1 MOL      0.328845
     57 H21        -4.4050    1.4240   -0.6020 h1        1 MOL      0.011360
     58 H22        -3.8300   -0.1990   -2.3400 hc        1 MOL      0.094689
     59 H23        -4.8440    0.6260   -3.4550 hc        1 MOL      0.094689
     60 H24        -6.7660   -0.4220   -3.7160 hn        1 MOL      0.333424
     61 H25        -7.6030   -1.1960   -2.3110 hn        1 MOL      0.333424
     62 N7         -2.1740    2.1830   -1.1520 n         1 MOL     -0.621352
     63 C20        -0.9000    2.9150   -1.1130 c3        1 MOL      0.004823
     64 C21        -1.0550    4.4390   -0.7230 c         1 MOL      0.641843
     65 O12        -2.1460    4.8240   -0.2570 o         1 MOL     -0.548452
     66 H26        -2.3900    1.6060   -0.3600 hn        1 MOL      0.359201
     67 H27        -0.3320    2.7550   -2.0260 h1        1 MOL      0.094196
     68 H28        -0.3360    2.5300   -0.2680 h1        1 MOL      0.094196
     69 N8          0.0290    5.2600   -0.7090 n         1 MOL     -0.617078
     70 C22         1.4240    5.1070   -1.2950 c3        1 MOL      0.002150
     71 C23         2.3690    4.2500   -0.4310 c         1 MOL      0.553111
     72 O13         2.3790    4.4340    0.7600 o         1 MOL     -0.511858
     73 C24         2.0560    6.4210   -1.6800 c3        1 MOL      0.522219
     74 C25         1.6260    7.0110   -3.0550 c3        1 MOL     -0.351864
     75 O14         2.0980    7.4040   -0.7330 oh        1 MOL     -0.648349
     76 H29        -0.1560    6.1630   -0.2750 hn        1 MOL      0.351914
     77 H30         1.3090    4.5900   -2.2540 h1        1 MOL      0.051036
     78 H31         3.0820    6.1220   -1.8950 h1        1 MOL     -0.044348
     79 H32         2.8210    8.0210   -0.8700 ho        1 MOL      0.403436
     80 H33         1.8290    6.1740   -3.7160 hc        1 MOL      0.072813
     81 H34         0.5960    7.3870   -3.0150 hc        1 MOL      0.072813
     82 H35         2.2540    7.8330   -3.4070 hc        1 MOL      0.072813
     83 N9          3.0610    3.3930   -1.1220 n         1 MOL     -0.518161
     84 C26         4.0340    2.4890   -0.6630 c3        1 MOL      0.033539
     85 C27         5.1950    2.5040   -1.6110 c         1 MOL      0.635016
     86 O15         4.9860    2.8200   -2.7720 o         1 MOL     -0.616551
     87 C28         3.5430    0.9850   -0.3970 c3        1 MOL      0.064870
     88 C29         2.8580    0.2190   -1.5700 c3        1 MOL     -0.105779
     89 C30         2.5420    1.0620    0.6870 c3        1 MOL     -0.594545
     90 C31         3.8830   -0.5770   -2.3890 c3        1 MOL     -0.009250
     91 H36         2.9680    3.4440   -2.1330 hn        1 MOL      0.285103
     92 H37         4.4400    2.9440    0.2410 h1        1 MOL      0.144181
     93 H38         4.3940    0.3660   -0.0830 hc        1 MOL      0.138206
     94 H39         2.3610    0.9640   -2.1930 hc        1 MOL      0.021533
     95 H40         2.1060   -0.4850   -1.2160 hc        1 MOL      0.021533
     96 H41         2.0310    0.1080    0.8220 hc        1 MOL      0.151007
     97 H42         3.0310    1.3900    1.6000 hc        1 MOL      0.151007
     98 H43         1.8350    1.8840    0.5370 hc        1 MOL      0.151007
     99 H44         3.4080   -1.1880   -3.1460 hc        1 MOL      0.015630
    100 H45         4.4860    0.1730   -2.9100 hc        1 MOL      0.015630
    101 H46         4.5400   -1.1040   -1.6870 hc        1 MOL      0.015630
    102 N10         6.4350    2.3360   -1.2580 n         1 MOL     -0.505324
    103 C32         7.0050    2.2160    0.0680 c3        1 MOL      0.214936
    104 C33         8.3780    1.4450   -0.0410 c         1 MOL      0.639335
    105 O16         8.9480    1.5620   -1.1270 o         1 MOL     -0.577236
    106 C34         7.3150    3.5650    0.6860 c3        1 MOL     -0.353352
    107 C35         7.6030    3.4690    2.1970 c         1 MOL      0.740267
    108 O17         8.0270    4.5310    2.7500 o         1 MOL     -0.719032
    109 O18         7.3910    2.3950    2.8090 o         1 MOL     -0.719032
    110 H47         7.2170    2.4190   -1.8910 hn        1 MOL      0.306613
    111 H48         6.3650    1.5820    0.6840 h1        1 MOL     -0.065147
    112 H49         6.4660    4.2410    0.5340 hc        1 MOL      0.069002
    113 H50         8.2210    3.9440    0.2070 hc        1 MOL      0.069002
    114 N11         8.8850    0.8040    1.0030 n         1 MOL     -0.666352
    115 C36        10.1790    0.0830    1.0010 c3        1 MOL      0.471785
    116 C37        10.1730   -1.0120    2.0860 c         1 MOL      0.191042
    117 O19         9.7240   -0.7060    3.2240 o         1 MOL     -0.500546
    118 C38        11.3610    1.0600    1.2910 c3        1 MOL     -0.172856
    119 C39        12.7020    0.3030    1.4380 ca        1 MOL      0.013861
    120 C40        13.0700   -0.2540    2.6360 ca        1 MOL     -0.108377
    121 C41        13.5670    0.2470    0.3100 ca        1 MOL     -0.108377
    122 C42        14.2670   -0.9480    2.7950 ca        1 MOL     -0.167487
    123 C43        14.8460   -0.3330    0.4760 ca        1 MOL     -0.167487
    124 C44        15.1310   -0.9790    1.6800 ca        1 MOL     -0.086998
    125 H51         8.4430    0.9150    1.9060 hn        1 MOL      0.360189
    126 H52        10.1820   -0.3550    0.0020 h1        1 MOL     -0.078866
    127 H53        11.1450    1.6290    2.1950 hc        1 MOL      0.083431
    128 H54        11.4800    1.7890    0.4850 hc        1 MOL      0.083431
    129 H55        12.3820   -0.1770    3.4620 ha        1 MOL      0.116466
    130 H56        13.3410    0.7260   -0.6320 ha        1 MOL      0.116466
    131 H57        14.5510   -1.3710    3.7460 ha        1 MOL      0.118852
    132 H58        15.5840   -0.3730   -0.3070 ha        1 MOL      0.118852
    133 H59        16.0960   -1.4470    1.7570 ha        1 MOL      0.079011
    134 N12        10.7770   -2.1810    1.7870 n         1 MOL      0.240462
    135 C45        11.2370   -2.7360    0.4840 c3        1 MOL      0.086969
    136 C46        10.1240   -3.3880   -0.4210 c         1 MOL      0.584689
    137 O20        10.4630   -4.0760   -1.3260 o         1 MOL     -0.566580
    138 C47        12.3480   -3.6910    0.8920 c3        1 MOL     -0.148744
    139 C48        12.0570   -4.0380    2.3120 c3        1 MOL      0.167860
    140 C49        10.8880   -3.1820    2.7430 c3        1 MOL     -0.263154
    141 H60        11.6840   -1.9180   -0.0820 h1        1 MOL     -0.000270
    142 H61        12.4150   -4.5720    0.2640 hc        1 MOL      0.025854
    143 H62        13.3060   -3.1690    0.9070 hc        1 MOL      0.025854
    144 H63        11.8210   -5.1050    2.3530 hc        1 MOL     -0.032431
    145 H64        12.9150   -3.9200    2.9790 hc        1 MOL     -0.032431
    146 H65        10.0890   -3.9160    2.6820 h1        1 MOL      0.069934
    147 H66        11.0470   -2.8910    3.7830 h1        1 MOL      0.069934
    148 N13         8.8740   -3.2230   -0.0940 n         1 MOL     -0.528147
    149 C50         7.6990   -3.7770   -0.8130 c3        1 MOL      0.270861
    150 C51         7.0780   -4.9830   -0.1030 c         1 MOL      0.494976
    151 O21         6.8160   -4.9000    1.0880 o         1 MOL     -0.575507
    152 C52         6.6960   -2.6800   -1.0970 c3        1 MOL     -0.116210
    153 C53         7.2670   -1.6110   -2.0550 c3        1 MOL     -0.036530
    154 C54         7.1800   -2.1050   -3.5330 c         1 MOL      0.660086
    155 O22         7.0450   -1.2900   -4.4300 o         1 MOL     -0.698153
    156 O23         7.4380   -3.3130   -3.7320 o         1 MOL     -0.698153
    157 H67         8.6900   -2.6250    0.7010 hn        1 MOL      0.240423
    158 H68         8.1710   -4.1420   -1.7340 h1        1 MOL      0.084369
    159 H69         6.4780   -2.2050   -0.1380 hc        1 MOL      0.002976
    160 H70         5.8250   -3.1030   -1.5850 hc        1 MOL      0.002976
    161 H71         8.3010   -1.3780   -1.7910 hc        1 MOL     -0.006393
    162 H72         6.5970   -0.7490   -2.0030 hc        1 MOL     -0.006393
    163 N14         6.9160   -6.1580   -0.7690 n         1 MOL     -0.497030
    164 C55         6.6330   -6.3170   -2.2400 c3        1 MOL      0.057623
    165 H73         6.3510   -5.3530   -2.6610 h1        1 MOL      0.031139
    166 H74         7.5260   -6.6870   -2.7440 h1        1 MOL      0.031139
    167 H75         5.8170   -7.0260   -2.3780 h1        1 MOL      0.031139
    168 H76         6.5440   -6.8800   -0.1620 hn        1 MOL      0.277765
    169 Ca1        -7.9860   -1.4010    0.9660 Ca        1 MOL      1.563708
    170 O24        -6.3780    0.6470    1.8990 oh        1 MOL     -0.790831
    171 H77        -6.1380    0.5640    2.8240 ho        1 MOL      0.399334
    172 H78        -5.9950    1.4770    1.6170 ho        1 MOL      0.399334
    173 O25        -8.6610   -3.9920    1.6610 oh        1 MOL     -0.790831
    174 H79        -8.2420   -4.8110    1.9130 ho        1 MOL      0.399334
    175 H80        -9.5450   -4.0470    2.0300 ho        1 MOL      0.399334
    176 O26        -5.9280   -2.2620    2.3080 oh        1 MOL     -0.790831
    177 H81        -5.7430   -3.2030    2.3050 ho        1 MOL      0.399334
    178 H82        -5.0650   -1.8450    2.3410 ho        1 MOL      0.399334
    179 O27        -6.6330   -3.7330   -0.3140 oh        1 MOL     -0.790831
    180 H83        -5.7150   -3.6040   -0.0820 ho        1 MOL      0.399334
    181 H84        -6.7860   -4.6610   -0.1490 ho        1 MOL      0.399334
@<TRIPOS>BOND
     1    1    2 1   
     2    1    4 1   
     3    1    5 1   
     4    1    6 1   
     5    2    3 2   
     6    2    7 1   
     7    7    8 1   
     8    7   15 1   
     9    8    9 1   
    10    8   11 1   
    11    8   16 1   
    12    9   10 2   
    13    9   19 1   
    14   11   12 1   
    15   11   17 1   
    16   11   18 1   
    17   12   13 1   
    18   12   14 1   
    19   19   20 1   
    20   19   24 1   
    21   20   21 1   
    22   20   23 1   
    23   20   25 1   
    24   21   22 2   
    25   21   29 1   
    26   23   26 1   
    27   23   27 1   
    28   23   28 1   
    29   29   30 1   
    30   29   37 1   
    31   30   31 1   
    32   30   33 1   
    33   30   38 1   
    34   31   32 2   
    35   31   41 1   
    36   33   34 1   
    37   33   39 1   
    38   33   40 1   
    39   34   35 1   
    40   34   36 1   
    41   41   42 1   
    42   41   45 1   
    43   42   43 1   
    44   42   46 1   
    45   42   47 1   
    46   43   44 2   
    47   43   48 1   
    48   48   49 1   
    49   48   56 1   
    50   49   50 1   
    51   49   52 1   
    52   49   57 1   
    53   50   51 2   
    54   50   62 1   
    55   52   53 1   
    56   52   58 1   
    57   52   59 1   
    58   53   54 1   
    59   53   55 2   
    60   54   60 1   
    61   54   61 1   
    62   62   63 1   
    63   62   66 1   
    64   63   64 1   
    65   63   67 1   
    66   63   68 1   
    67   64   65 2   
    68   64   69 1   
    69   69   70 1   
    70   69   76 1   
    71   70   71 1   
    72   70   73 1   
    73   70   77 1   
    74   71   72 2   
    75   71   83 1   
    76   73   74 1   
    77   73   75 1   
    78   73   78 1   
    79   74   80 1   
    80   74   81 1   
    81   74   82 1   
    82   75   79 1   
    83   83   84 1   
    84   83   91 1   
    85   84   85 1   
    86   84   87 1   
    87   84   92 1   
    88   85   86 2   
    89   85  102 1   
    90   87   88 1   
    91   87   89 1   
    92   87   93 1   
    93   88   90 1   
    94   88   94 1   
    95   88   95 1   
    96   89   96 1   
    97   89   97 1   
    98   89   98 1   
    99   90   99 1   
   100   90  100 1   
   101   90  101 1   
   102  102  103 1   
   103  102  110 1   
   104  103  104 1   
   105  103  106 1   
   106  103  111 1   
   107  104  105 2   
   108  104  114 1   
   109  106  107 1   
   110  106  112 1   
   111  106  113 1   
   112  107  108 1   
   113  107  109 1   
   114  114  115 1   
   115  114  125 1   
   116  115  116 1   
   117  115  118 1   
   118  115  126 1   
   119  116  117 2   
   120  116  134 1   
   121  118  119 1   
   122  118  127 1   
   123  118  128 1   
   124  119  120 ar  
   125  119  121 ar  
   126  120  122 ar  
   127  120  129 1   
   128  121  123 ar  
   129  121  130 1   
   130  122  124 ar  
   131  122  131 1   
   132  123  124 ar  
   133  123  132 1   
   134  124  133 1   
   135  134  135 1   
   136  134  140 1   
   137  135  136 1   
   138  135  138 1   
   139  135  141 1   
   140  136  137 2   
   141  136  148 1   
   142  138  139 1   
   143  138  142 1   
   144  138  143 1   
   145  139  140 1   
   146  139  144 1   
   147  139  145 1   
   148  140  146 1   
   149  140  147 1   
   150  148  149 1   
   151  148  157 1   
   152  149  150 1   
   153  149  152 1   
   154  149  158 1   
   155  150  151 2   
   156  150  163 1   
   157  152  153 1   
   158  152  159 1   
   159  152  160 1   
   160  153  154 1   
   161  153  161 1   
   162  153  162 1   
   163  154  155 1   
   164  154  156 1   
   165  163  164 1   
   166  163  168 1   
   167  164  165 1   
   168  164  166 1   
   169  164  167 1   
   170  170  171 1   
   171  170  172 1   
   172  173  174 1   
   173  173  175 1   
   174  176  177 1   
   175  176  178 1   
   176  179  180 1   
   177  179  181 1   
@<TRIPOS>SUBSTRUCTURE
     1 MOL         1 TEMP              0 ****  ****    0 ROOT
