@<TRIPOS>MOLECULE
MOL
  181   177     1     0     0
SMALL
resp


@<TRIPOS>ATOM
      1 C1          0.9820    6.3810   -1.9440 c3        1 MOL     -0.339208
      2 C2          2.3430    6.6280   -1.3290 c         1 MOL      0.707171
      3 O1          2.3720    7.1500   -0.2380 o         1 MOL     -0.604211
      4 H1          0.9350    5.3610   -2.3240 hc        1 MOL      0.079110
      5 H2          0.2100    6.5230   -1.1880 hc        1 MOL      0.079110
      6 H3          0.8210    7.0810   -2.7640 hc        1 MOL      0.079110
      7 N1          3.4370    6.1210   -1.8900 n         1 MOL     -0.544017
      8 C3          4.7620    5.9120   -1.2050 c3        1 MOL      0.057027
      9 C4          4.7290    4.8190   -0.2780 c         1 MOL      0.625502
     10 O2          4.6420    3.7130   -0.6990 o         1 MOL     -0.530852
     11 C5          5.8180    5.7210   -2.3220 c3        1 MOL     -0.225750
     12 C6          7.1770    6.1710   -1.8110 c         1 MOL      0.700135
     13 O3          7.9060    5.3880   -1.1160 o         1 MOL     -0.726880
     14 O4          7.5790    7.2690   -2.1420 o         1 MOL     -0.726880
     15 H4          3.2820    5.6710   -2.7750 hn        1 MOL      0.288632
     16 H5          4.9940    6.8620   -0.7220 h1        1 MOL      0.077741
     17 H6          5.5420    6.4390   -3.0950 hc        1 MOL      0.043337
     18 H7          5.7000    4.7170   -2.7410 hc        1 MOL      0.043337
     19 N2          4.8710    5.0470    1.0500 n         1 MOL     -0.707482
     20 C7          4.8880    3.9630    1.9910 c3        1 MOL      0.607030
     21 C8          3.6710    2.9890    1.8470 c         1 MOL      0.423900
     22 O5          2.5870    3.4260    1.4580 o         1 MOL     -0.531351
     23 C9          4.8230    4.5010    3.3420 c3        1 MOL     -0.361326
     24 H8          5.0900    5.9620    1.4030 hn        1 MOL      0.339475
     25 H9          5.8400    3.4640    1.8450 h1        1 MOL     -0.050437
     26 H10         4.9520    3.6520    4.0160 hc        1 MOL      0.074555
     27 H11         5.6690    5.1940    3.4080 hc        1 MOL      0.074555
     28 H12         3.8800    5.0500    3.4350 hc        1 MOL      0.074555
     29 N3          3.7770    1.7100    2.1390 n         1 MOL     -0.439063
     30 C10         4.7340    0.9630    2.9590 c3        1 MOL     -0.267008
     31 C11         5.3120   -0.2540    2.1530 c         1 MOL      0.510608
     32 O6          4.6430   -0.9280    1.4460 o         1 MOL     -0.425672
     33 C12         4.1200    0.6080    4.3410 c3        1 MOL     -0.034865
     34 C13         2.7220    0.0680    4.4480 c         1 MOL      0.644215
     35 O7          2.0240    0.3970    5.4200 o         1 MOL     -0.687574
     36 O8          2.2590   -0.7640    3.6320 o         1 MOL     -0.687574
     37 H13         2.9310    1.1620    1.9920 hn        1 MOL      0.385901
     38 H14         5.5510    1.6080    3.2700 h1        1 MOL      0.142379
     39 H15         4.1920    1.4010    5.0850 hc        1 MOL      0.027555
     40 H16         4.8270   -0.0760    4.8320 hc        1 MOL      0.027555
     41 N4          6.6800   -0.3930    2.2900 n         1 MOL     -0.392892
     42 C14         7.5480   -1.4290    1.6980 c3        1 MOL      0.267830
     43 C15         8.7690   -0.9850    0.8420 c         1 MOL      0.487379
     44 O9          9.4670   -0.1080    1.2810 o         1 MOL     -0.537471
     45 H17         7.1420    0.1970    2.9660 hn        1 MOL      0.245914
     46 H18         6.9240   -2.0730    1.0920 h1        1 MOL     -0.038905
     47 H19         7.9740   -2.0310    2.4920 h1        1 MOL     -0.038905
     48 N5          9.0340   -1.4960   -0.3410 n         1 MOL     -0.476967
     49 C16         8.2480   -2.5370   -1.0250 c3        1 MOL      0.105003
     50 C17         6.8990   -2.0120   -1.6490 c         1 MOL      0.525858
     51 O10         6.7000   -0.8230   -1.8820 o         1 MOL     -0.483629
     52 C18         9.2140   -3.1710   -2.1040 c3        1 MOL     -0.364971
     53 C19         8.8210   -4.5750   -2.5000 c         1 MOL      0.732602
     54 N6          9.6850   -5.3480   -3.1420 n         1 MOL     -0.796124
     55 O11         7.7320   -4.9820   -2.3460 o         1 MOL     -0.550320
     56 H20         9.8480   -1.1950   -0.8590 hn        1 MOL      0.326776
     57 H21         7.9750   -3.3140   -0.3220 h1        1 MOL      0.034691
     58 H22        10.2120   -3.1460   -1.6560 hc        1 MOL      0.112904
     59 H23         9.1170   -2.5850   -3.0130 hc        1 MOL      0.112904
     60 H24        10.6460   -5.1100   -3.3200 hn        1 MOL      0.351875
     61 H25         9.4180   -6.3210   -3.2570 hn        1 MOL      0.351875
     62 N7          5.8780   -2.8980   -1.7550 n         1 MOL     -0.325110
     63 C20         4.5170   -2.3570   -2.0020 c3        1 MOL     -0.233357
     64 C21         3.4770   -3.4410   -2.2090 c         1 MOL      0.678821
     65 O12         3.5660   -4.3230   -3.0340 o         1 MOL     -0.573850
     66 H26         6.0940   -3.8780   -1.6260 hn        1 MOL      0.275866
     67 H27         4.5040   -1.6780   -2.8550 h1        1 MOL      0.106743
     68 H28         4.2540   -1.7610   -1.1250 h1        1 MOL      0.106743
     69 N8          2.3940   -3.3300   -1.4880 n         1 MOL     -0.404604
     70 C22         1.2040   -4.2340   -1.5420 c3        1 MOL     -0.177383
     71 C23        -0.0630   -3.5880   -0.9950 c         1 MOL      0.661833
     72 O13        -0.0250   -2.7740   -0.0780 o         1 MOL     -0.591453
     73 C24         1.4700   -5.5880   -0.8200 c3        1 MOL      0.479642
     74 C25         2.2480   -6.5890   -1.6270 c3        1 MOL     -0.439193
     75 O14         2.1550   -5.2690    0.3550 oh        1 MOL     -0.598197
     76 H29         2.3230   -2.5350   -0.8620 hn        1 MOL      0.304056
     77 H30         0.9580   -4.3990   -2.5860 h1        1 MOL      0.085955
     78 H31         0.5390   -6.1130   -0.5940 h1        1 MOL     -0.016563
     79 H32         1.8580   -5.9350    0.9740 ho        1 MOL      0.362496
     80 H33         3.3040   -6.3560   -1.5100 hc        1 MOL      0.107414
     81 H34         2.0740   -7.6040   -1.2870 hc        1 MOL      0.107414
     82 H35         1.9020   -6.6170   -2.6580 hc        1 MOL      0.107414
     83 N9         -1.1900   -3.8310   -1.6780 n         1 MOL     -0.477037
     84 C26        -2.4380   -3.0870   -1.4710 c3        1 MOL     -0.255145
     85 C27        -3.2390   -3.5290   -0.2050 c         1 MOL      0.663479
     86 O15        -3.4400   -4.7120   -0.0830 o         1 MOL     -0.549667
     87 C28        -3.4040   -3.3310   -2.6760 c3        1 MOL      0.345569
     88 C29        -4.5710   -2.2990   -2.6810 c3        1 MOL      0.001685
     89 C30        -2.5760   -3.1160   -3.9320 c3        1 MOL     -0.373065
     90 C31        -5.6300   -2.4860   -3.8440 c3        1 MOL     -0.378666
     91 H36        -1.1680   -4.5400   -2.3960 hn        1 MOL      0.280788
     92 H37        -2.1670   -2.0380   -1.3780 h1        1 MOL      0.235438
     93 H38        -3.8740   -4.3070   -2.6670 hc        1 MOL     -0.026605
     94 H39        -4.2250   -1.2690   -2.7690 hc        1 MOL      0.009896
     95 H40        -5.1680   -2.2550   -1.7710 hc        1 MOL      0.009896
     96 H41        -3.1620   -3.0730   -4.8530 hc        1 MOL      0.083300
     97 H42        -2.0010   -2.2020   -3.8990 hc        1 MOL      0.083300
     98 H43        -1.9860   -4.0360   -4.0260 hc        1 MOL      0.083300
     99 H44        -6.1850   -3.3920   -3.5930 hc        1 MOL      0.089030
    100 H45        -6.3870   -1.7010   -3.7720 hc        1 MOL      0.089030
    101 H46        -5.1050   -2.4770   -4.7990 hc        1 MOL      0.089030
    102 N10        -3.6260   -2.5890    0.6670 n         1 MOL     -0.496485
    103 C32        -4.5280   -2.8900    1.8110 c3        1 MOL      0.008052
    104 C33        -5.7600   -2.0300    1.9640 c         1 MOL      0.361852
    105 O16        -6.5350   -2.0670    2.8860 o         1 MOL     -0.532360
    106 C34        -3.7390   -2.6270    3.1280 c3        1 MOL      0.072315
    107 C35        -2.4810   -3.4110    3.2440 c         1 MOL      0.604729
    108 O17        -2.5900   -4.6470    3.2810 o         1 MOL     -0.685717
    109 O18        -1.4370   -2.7830    3.3710 o         1 MOL     -0.685717
    110 H47        -3.3900   -1.6190    0.4920 hn        1 MOL      0.192693
    111 H48        -4.7740   -3.9610    1.7800 h1        1 MOL      0.102897
    112 H49        -4.3700   -2.8680    3.9810 hc        1 MOL     -0.010226
    113 H50        -3.5880   -1.5460    3.1480 hc        1 MOL     -0.010226
    114 N11        -5.9080   -1.0970    1.0350 n         1 MOL     -0.298793
    115 C36        -7.0920   -0.2760    0.9140 c3        1 MOL      0.534967
    116 C37        -6.6550    1.1370    0.4580 c         1 MOL      0.099251
    117 O19        -7.1680    1.5140   -0.6220 o         1 MOL     -0.489945
    118 C38        -8.1900   -0.9100    0.0490 c3        1 MOL     -0.478652
    119 C39        -9.5540   -0.3470   -0.0320 ca        1 MOL      0.232876
    120 C40       -10.0460    0.0200   -1.2980 ca        1 MOL     -0.165354
    121 C41       -10.3970   -0.2980    1.0680 ca        1 MOL     -0.165354
    122 C42       -11.4270    0.2700   -1.4890 ca        1 MOL     -0.140749
    123 C43       -11.7540    0.0790    0.8800 ca        1 MOL     -0.140749
    124 C44       -12.3250    0.3860   -0.3750 ca        1 MOL     -0.134882
    125 H51        -5.2290   -0.8440    0.3240 hn        1 MOL      0.261550
    126 H52        -7.5510   -0.1150    1.8950 h1        1 MOL     -0.041644
    127 H53        -8.3070   -1.9540    0.3580 hc        1 MOL      0.127408
    128 H54        -7.8590   -0.9990   -0.9870 hc        1 MOL      0.127408
    129 H55        -9.4340    0.0070   -2.1920 ha        1 MOL      0.122235
    130 H56       -10.0760   -0.5910    2.0590 ha        1 MOL      0.122235
    131 H57       -11.8490    0.4100   -2.4760 ha        1 MOL      0.100801
    132 H58       -12.4140    0.0780    1.7380 ha        1 MOL      0.100801
    133 H59       -13.3610    0.6970   -0.4410 ha        1 MOL      0.114016
    134 N12        -5.8130    1.9130    1.1620 n         1 MOL      0.142920
    135 C45        -5.5030    3.2550    0.8100 c3        1 MOL     -0.133593
    136 C46        -4.7980    3.6200   -0.4750 c         1 MOL      0.203369
    137 O20        -4.7910    4.7950   -0.8060 o         1 MOL     -0.475938
    138 C47        -4.6640    3.7650    1.9820 c3        1 MOL      0.003084
    139 C48        -5.0820    2.9550    3.1460 c3        1 MOL     -0.180169
    140 C49        -5.3210    1.5930    2.4670 c3        1 MOL     -0.098701
    141 H60        -6.5230    3.6360    0.8060 h1        1 MOL      0.125782
    142 H61        -3.5830    3.7220    1.8210 hc        1 MOL      0.049241
    143 H62        -5.0180    4.7770    2.1710 hc        1 MOL      0.049241
    144 H63        -4.2420    2.8620    3.8370 hc        1 MOL      0.069647
    145 H64        -5.9270    3.4400    3.6360 hc        1 MOL      0.069647
    146 H65        -4.4260    0.9790    2.3410 h1        1 MOL      0.061815
    147 H66        -5.9990    0.9410    3.0110 h1        1 MOL      0.061815
    148 N13        -4.2910    2.6430   -1.2030 n         1 MOL      0.233262
    149 C50        -3.6080    2.8680   -2.4270 c3        1 MOL     -0.377553
    150 C51        -4.6030    3.0080   -3.6150 c         1 MOL      0.518066
    151 O21        -4.5200    3.9580   -4.4410 o         1 MOL     -0.541129
    152 C52        -2.6570    1.6900   -2.6920 c3        1 MOL      0.045516
    153 C53        -1.8030    1.1980   -1.4580 c3        1 MOL     -0.081892
    154 C54        -2.5590    0.2470   -0.4050 c         1 MOL      0.368596
    155 O22        -1.7790   -0.2880    0.4720 o         1 MOL     -0.602116
    156 O23        -3.7150    0.0070   -0.4130 o         1 MOL     -0.602116
    157 H67        -4.4680    1.6900   -0.9140 hn        1 MOL      0.149605
    158 H68        -2.9950    3.7510   -2.2700 h1        1 MOL      0.152690
    159 H69        -1.9110    1.7680   -3.4820 hc        1 MOL      0.019125
    160 H70        -3.2840    0.8200   -2.9540 hc        1 MOL      0.019125
    161 H71        -1.4020    2.0740   -0.9630 hc        1 MOL      0.056874
    162 H72        -1.0050    0.6460   -1.9530 hc        1 MOL      0.056874
    163 N14        -5.6720    2.2050   -3.7060 n         1 MOL     -0.282326
    164 C55        -6.8480    2.3900   -4.5960 c3        1 MOL     -0.078274
    165 H73        -7.1440    1.4260   -5.0110 h1        1 MOL      0.068194
    166 H74        -7.6760    2.8070   -4.0210 h1        1 MOL      0.068194
    167 H75        -6.5880    3.0700   -5.4060 h1        1 MOL      0.068194
    168 H76        -5.7230    1.4890   -3.0040 hn        1 MOL      0.209825
    169 Ca1        -0.0260   -1.1290    2.1020 Ca        1 MOL      1.744229
    170 O24         2.0800   -0.6830    0.5960 oh        1 MOL     -0.906599
    171 H77         2.8910   -0.9350    1.0330 ho        1 MOL      0.428753
    172 H78         2.3520   -0.0420   -0.0610 ho        1 MOL      0.428753
    173 O25        -1.5410    0.3820    3.7110 oh        1 MOL     -0.906599
    174 H79        -1.3080    1.2330    4.0800 ho        1 MOL      0.428753
    175 H80        -2.4220    0.2060    4.0490 ho        1 MOL      0.428753
    176 O26         1.3890   -3.3360    2.6390 oh        1 MOL     -0.906599
    177 H81         1.1630   -3.8000    3.4430 ho        1 MOL      0.428753
    178 H82         1.6530   -4.0260    2.0240 ho        1 MOL      0.428753
    179 O27         0.4260    1.4360    1.6110 oh        1 MOL     -0.906599
    180 H83         0.9360    2.2150    1.3790 ho        1 MOL      0.428753
    181 H84        -0.4410    1.7720    1.8410 ho        1 MOL      0.428753
@<TRIPOS>BOND
     1    1    2 1   
     2    1    4 1   
     3    1    5 1   
     4    1    6 1   
     5    2    3 2   
     6    2    7 1   
     7    7    8 1   
     8    7   15 1   
     9    8    9 1   
    10    8   11 1   
    11    8   16 1   
    12    9   10 2   
    13    9   19 1   
    14   11   12 1   
    15   11   17 1   
    16   11   18 1   
    17   12   13 1   
    18   12   14 1   
    19   19   20 1   
    20   19   24 1   
    21   20   21 1   
    22   20   23 1   
    23   20   25 1   
    24   21   22 2   
    25   21   29 1   
    26   23   26 1   
    27   23   27 1   
    28   23   28 1   
    29   29   30 1   
    30   29   37 1   
    31   30   31 1   
    32   30   33 1   
    33   30   38 1   
    34   31   32 2   
    35   31   41 1   
    36   33   34 1   
    37   33   39 1   
    38   33   40 1   
    39   34   35 1   
    40   34   36 1   
    41   41   42 1   
    42   41   45 1   
    43   42   43 1   
    44   42   46 1   
    45   42   47 1   
    46   43   44 2   
    47   43   48 1   
    48   48   49 1   
    49   48   56 1   
    50   49   50 1   
    51   49   52 1   
    52   49   57 1   
    53   50   51 2   
    54   50   62 1   
    55   52   53 1   
    56   52   58 1   
    57   52   59 1   
    58   53   54 1   
    59   53   55 2   
    60   54   60 1   
    61   54   61 1   
    62   62   63 1   
    63   62   66 1   
    64   63   64 1   
    65   63   67 1   
    66   63   68 1   
    67   64   65 2   
    68   64   69 1   
    69   69   70 1   
    70   69   76 1   
    71   70   71 1   
    72   70   73 1   
    73   70   77 1   
    74   71   72 2   
    75   71   83 1   
    76   73   74 1   
    77   73   75 1   
    78   73   78 1   
    79   74   80 1   
    80   74   81 1   
    81   74   82 1   
    82   75   79 1   
    83   83   84 1   
    84   83   91 1   
    85   84   85 1   
    86   84   87 1   
    87   84   92 1   
    88   85   86 2   
    89   85  102 1   
    90   87   88 1   
    91   87   89 1   
    92   87   93 1   
    93   88   90 1   
    94   88   94 1   
    95   88   95 1   
    96   89   96 1   
    97   89   97 1   
    98   89   98 1   
    99   90   99 1   
   100   90  100 1   
   101   90  101 1   
   102  102  103 1   
   103  102  110 1   
   104  103  104 1   
   105  103  106 1   
   106  103  111 1   
   107  104  105 2   
   108  104  114 1   
   109  106  107 1   
   110  106  112 1   
   111  106  113 1   
   112  107  108 1   
   113  107  109 1   
   114  114  115 1   
   115  114  125 1   
   116  115  116 1   
   117  115  118 1   
   118  115  126 1   
   119  116  117 2   
   120  116  134 1   
   121  118  119 1   
   122  118  127 1   
   123  118  128 1   
   124  119  120 ar  
   125  119  121 ar  
   126  120  122 ar  
   127  120  129 1   
   128  121  123 ar  
   129  121  130 1   
   130  122  124 ar  
   131  122  131 1   
   132  123  124 ar  
   133  123  132 1   
   134  124  133 1   
   135  134  135 1   
   136  134  140 1   
   137  135  136 1   
   138  135  138 1   
   139  135  141 1   
   140  136  137 2   
   141  136  148 1   
   142  138  139 1   
   143  138  142 1   
   144  138  143 1   
   145  139  140 1   
   146  139  144 1   
   147  139  145 1   
   148  140  146 1   
   149  140  147 1   
   150  148  149 1   
   151  148  157 1   
   152  149  150 1   
   153  149  152 1   
   154  149  158 1   
   155  150  151 2   
   156  150  163 1   
   157  152  153 1   
   158  152  159 1   
   159  152  160 1   
   160  153  154 1   
   161  153  161 1   
   162  153  162 1   
   163  154  155 1   
   164  154  156 1   
   165  163  164 1   
   166  163  168 1   
   167  164  165 1   
   168  164  166 1   
   169  164  167 1   
   170  170  171 1   
   171  170  172 1   
   172  173  174 1   
   173  173  175 1   
   174  176  177 1   
   175  176  178 1   
   176  179  180 1   
   177  179  181 1   
@<TRIPOS>SUBSTRUCTURE
     1 MOL         1 TEMP              0 ****  ****    0 ROOT
