@<TRIPOS>MOLECULE
MOL
  192   187     1     0     0
SMALL
resp


@<TRIPOS>ATOM
      1 C1          9.2960    0.7000    1.5200 c3        1 MOL     -0.494648
      2 C2          7.9970    0.4020    0.7270 c         1 MOL      0.679115
      3 O1          6.8860    0.4640    1.2960 o         1 MOL     -0.650787
      4 H1         10.0960    0.9550    0.8230 hc        1 MOL      0.125186
      5 H2          9.1250    1.5370    2.1970 hc        1 MOL      0.125186
      6 H3          9.5830   -0.1800    2.0950 hc        1 MOL      0.125186
      7 N1          8.1720   -0.0370   -0.5230 n         1 MOL     -0.355901
      8 C3          7.1280   -0.3740   -1.5340 c3        1 MOL     -0.229852
      9 C4          6.8090   -1.8260   -1.2960 c         1 MOL      0.643197
     10 O2          6.6410   -2.5570   -2.2330 o         1 MOL     -0.450469
     11 C5          7.5090    0.0160   -2.9830 c3        1 MOL     -0.083079
     12 C6          8.7570   -0.6520   -3.5510 c         1 MOL      0.677404
     13 O3          8.6860   -1.1640   -4.6670 o         1 MOL     -0.635663
     14 O4          9.8120   -0.5120   -2.8740 o         1 MOL     -0.635663
     15 H4          9.1080   -0.1430   -0.8680 hn        1 MOL      0.193462
     16 H5          6.2470    0.2130   -1.2570 h1        1 MOL      0.210391
     17 H6          7.6360    1.0940   -3.0820 hc        1 MOL      0.049950
     18 H7          6.6620   -0.2780   -3.6000 hc        1 MOL      0.049950
     19 N2          6.5400   -2.3330   -0.0390 n         1 MOL     -0.533549
     20 C7          5.9780   -3.6300    0.2970 c3        1 MOL      0.131701
     21 C8          4.5250   -3.8010    0.0060 c         1 MOL      0.470892
     22 O5          4.2050   -4.8610   -0.5000 o         1 MOL     -0.556892
     23 C9          6.2700   -3.8530    1.8210 c3        1 MOL     -0.046892
     24 C10         7.8280   -4.0460    2.0920 c3        1 MOL     -0.063522
     25 C11         8.0680   -4.7040    3.4370 c3        1 MOL     -0.080955
     26 C12         9.4880   -4.5070    3.9970 c3        1 MOL      0.122903
     27 N3          9.7580   -5.0470    5.3440 n4        1 MOL     -0.289522
     28 H8          6.6250   -1.6680    0.7090 hn        1 MOL      0.276098
     29 H9          6.5330   -4.3960   -0.2540 h1        1 MOL      0.068403
     30 H10         5.6400   -4.6600    2.2010 hc        1 MOL      0.017925
     31 H11         5.9080   -2.9330    2.2810 hc        1 MOL      0.017925
     32 H12         8.3540   -3.0940    1.9900 hc        1 MOL      0.045373
     33 H13         8.2940   -4.5790    1.2680 hc        1 MOL      0.045373
     34 H14         7.9300   -5.7810    3.3290 hc        1 MOL      0.052157
     35 H15         7.3430   -4.3750    4.1840 hc        1 MOL      0.052157
     36 H16         9.7570   -3.4430    4.0220 hx        1 MOL      0.050442
     37 H17        10.2150   -4.9590    3.3230 hx        1 MOL      0.050442
     38 H18         9.0630   -4.8570    6.0470 hn        1 MOL      0.261593
     39 H19         9.7840   -6.0470    5.2760 hn        1 MOL      0.261593
     40 H20        10.6620   -4.7110    5.6250 hn        1 MOL      0.261593
     41 N4          3.6000   -2.8300    0.1210 n         1 MOL     -0.308360
     42 C13         3.6280   -1.5300    0.8830 c3        1 MOL      0.034271
     43 C14         3.6340   -0.2860   -0.0610 c         1 MOL      0.114521
     44 O6          3.7010   -0.3640   -1.2680 o         1 MOL     -0.403333
     45 C15         2.3730   -1.5660    1.8260 c3        1 MOL     -0.258836
     46 C16         1.0940   -1.9930    1.1310 c         1 MOL      0.551230
     47 O7          0.7680   -1.4750    0.0500 o         1 MOL     -0.626987
     48 O8          0.5470   -3.0040    1.5880 o         1 MOL     -0.626987
     49 H21         2.7290   -3.0980   -0.3050 hn        1 MOL      0.339984
     50 H22         4.4310   -1.4300    1.6060 h1        1 MOL      0.115949
     51 H23         2.2700   -0.6120    2.3420 hc        1 MOL      0.067232
     52 H24         2.4930   -2.3310    2.5960 hc        1 MOL      0.067232
     53 N5          3.7590    0.8690    0.5720 n         1 MOL     -0.231700
     54 C17         3.9780    2.1450   -0.0590 c3        1 MOL     -0.003704
     55 C18         2.7450    2.7410   -0.7650 c         1 MOL      0.684850
     56 O9          1.6910    2.1310   -0.7870 o         1 MOL     -0.576096
     57 H25         3.9150    0.8180    1.5740 hn        1 MOL      0.279967
     58 H26         4.7720    1.9570   -0.7800 h1        1 MOL      0.029731
     59 H27         4.3290    2.8980    0.6480 h1        1 MOL      0.029731
     60 N6          3.0610    3.8790   -1.4280 n         1 MOL     -0.541960
     61 C19         2.0300    4.7660   -2.1210 c3        1 MOL      0.303988
     62 C20         2.2940    6.2940   -2.2130 c         1 MOL      0.473818
     63 O10         3.4900    6.6280   -2.2820 o         1 MOL     -0.552487
     64 C21         1.7810    4.1570   -3.4870 c3        1 MOL     -0.436591
     65 C22         1.3570    2.7210   -3.4910 c         1 MOL      0.772541
     66 O11         0.2290    2.5680   -2.9650 o         1 MOL     -0.665183
     67 O12         1.9900    1.8230   -4.1000 o         1 MOL     -0.665183
     68 H28         3.9600    4.3230   -1.3270 hn        1 MOL      0.296392
     69 H29         1.1420    4.5640   -1.5160 h1        1 MOL     -0.006122
     70 H30         2.7380    4.1480   -4.0230 hc        1 MOL      0.096169
     71 H31         1.0230    4.7440   -4.0070 hc        1 MOL      0.096169
     72 N7          1.3430    7.1560   -2.0880 n         1 MOL     -0.424271
     73 C23        -0.0740    6.7840   -2.2880 c3        1 MOL      0.054112
     74 C24        -0.7460    6.3530   -0.9620 c         1 MOL      0.644024
     75 O13        -0.2870    6.8360    0.0560 o         1 MOL     -0.539553
     76 H32         1.6420    8.1110   -2.2490 hn        1 MOL      0.310963
     77 H33        -0.1590    6.1710   -3.1860 h1        1 MOL      0.038937
     78 H34        -0.5950    7.7100   -2.5210 h1        1 MOL      0.038937
     79 N8         -1.8360    5.5910   -1.0320 n         1 MOL     -0.628766
     80 C25        -2.5160    4.9430    0.1100 c3        1 MOL      0.086472
     81 C26        -1.6750    3.8160    0.6470 c         1 MOL      0.398804
     82 O14        -1.0830    2.9850   -0.0440 o         1 MOL     -0.473549
     83 C27        -3.8710    4.3590   -0.2840 c3        1 MOL      0.374518
     84 C28        -4.5720    3.6720    0.8670 c3        1 MOL     -0.350856
     85 O15        -3.8820    3.4210   -1.3130 oh        1 MOL     -0.599316
     86 H35        -2.2010    5.4400   -1.9560 hn        1 MOL      0.328262
     87 H36        -2.6560    5.7740    0.8050 h1        1 MOL      0.090052
     88 H37        -4.4710    5.2280   -0.5560 h1        1 MOL     -0.006033
     89 H38        -4.7870    3.1020   -1.3580 ho        1 MOL      0.388728
     90 H39        -5.6410    3.5800    0.6460 hc        1 MOL      0.081551
     91 H40        -4.2150    2.6370    0.9280 hc        1 MOL      0.081551
     92 H41        -4.5470    4.3380    1.7290 hc        1 MOL      0.081551
     93 N9         -1.6080    3.7480    1.9790 n         1 MOL     -0.550300
     94 C29        -0.8070    2.7520    2.8360 c3        1 MOL      0.012339
     95 C30        -1.0800    1.3050    2.4370 c         1 MOL      0.521779
     96 O16        -0.5550    0.8770    1.4040 o         1 MOL     -0.547282
     97 C31         0.7140    3.1530    2.8200 c3        1 MOL      0.417470
     98 C32         1.0650    4.6490    2.6760 c3        1 MOL     -0.008969
     99 C33         1.4130    2.6200    4.0640 c3        1 MOL     -0.410164
    100 C34         2.6030    4.9180    2.5060 c3        1 MOL     -0.235326
    101 H42        -2.0380    4.4680    2.5390 hn        1 MOL      0.303897
    102 H43        -1.1030    2.8280    3.8760 h1        1 MOL      0.024326
    103 H44         1.2090    2.6910    1.9700 hc        1 MOL     -0.058534
    104 H45         0.5560    5.2710    3.4110 hc        1 MOL      0.003428
    105 H46         0.6410    4.9760    1.7270 hc        1 MOL      0.003428
    106 H47         1.2090    1.5540    4.1470 hc        1 MOL      0.076637
    107 H48         2.4990    2.7330    4.0620 hc        1 MOL      0.076637
    108 H49         0.9530    3.1080    4.9200 hc        1 MOL      0.076637
    109 H50         3.0860    4.8550    3.4840 hc        1 MOL      0.066204
    110 H51         2.9750    4.1020    1.8820 hc        1 MOL      0.066204
    111 H52         2.7980    5.8310    1.9440 hc        1 MOL      0.066204
    112 N10        -1.7700    0.5570    3.2260 n         1 MOL     -0.258066
    113 C35        -2.2450   -0.7900    2.9990 c3        1 MOL     -0.133984
    114 C36        -3.7820   -1.0240    2.9960 c         1 MOL      0.536953
    115 O17        -4.2510   -2.1270    3.0430 o         1 MOL     -0.576746
    116 C37        -1.5620   -1.6970    4.0330 c3        1 MOL      0.214455
    117 C38        -1.8630   -1.3900    5.5190 c3        1 MOL     -0.177008
    118 O18        -0.1360   -1.5850    3.9100 oh        1 MOL     -0.556629
    119 H53        -2.1330    0.9740    4.0720 hn        1 MOL      0.237938
    120 H54        -1.8780   -1.1840    2.0610 h1        1 MOL      0.155577
    121 H55        -1.8240   -2.7500    3.9240 h1        1 MOL      0.076706
    122 H56         0.1020   -2.2030    3.2130 ho        1 MOL      0.345571
    123 H57        -1.4380   -0.4690    5.9170 hc        1 MOL      0.040354
    124 H58        -2.9060   -1.1450    5.6880 hc        1 MOL      0.040354
    125 H59        -1.6420   -2.2390    6.1590 hc        1 MOL      0.040354
    126 N11        -4.5480    0.0170    2.9290 n         1 MOL     -0.160862
    127 C39        -6.0180   -0.0420    3.0010 c3        1 MOL     -0.127122
    128 C40        -6.6550   -0.5310    1.6740 c         1 MOL      0.537466
    129 O19        -7.1120    0.3370    0.9470 o         1 MOL     -0.501994
    130 C41        -6.6870    1.2360    3.6130 c3        1 MOL      0.326077
    131 C42        -6.5140    1.3550    5.1170 c3        1 MOL     -0.221215
    132 O20        -6.0340    2.3230    2.9700 oh        1 MOL     -0.619526
    133 H60        -4.2210    0.9760    2.9290 hn        1 MOL      0.212071
    134 H61        -6.2380   -0.8340    3.7280 h1        1 MOL      0.055744
    135 H62        -7.7430    1.2510    3.3440 h1        1 MOL      0.017341
    136 H63        -6.7130    2.9670    2.7650 ho        1 MOL      0.398290
    137 H64        -5.4840    1.1190    5.3860 hc        1 MOL      0.055672
    138 H65        -6.8590    2.2850    5.5620 hc        1 MOL      0.055672
    139 H66        -7.1670    0.5720    5.4860 hc        1 MOL      0.055672
    140 N12        -6.6900   -1.8460    1.4410 n         1 MOL     -0.600966
    141 C43        -6.6380   -2.4140    0.0560 c3        1 MOL      0.059909
    142 C44        -5.2870   -2.2630   -0.6300 c         1 MOL      0.662333
    143 O21        -4.6490   -1.2370   -0.4870 o         1 MOL     -0.544523
    144 C45        -7.7370   -2.0070   -0.9240 c3        1 MOL     -0.262748
    145 C46        -9.0680   -2.5500   -0.4930 c3        1 MOL      0.073032
    146 C47       -10.1570   -2.1810   -1.5030 c3        1 MOL      0.021302
    147 C48       -11.5550   -2.6670   -1.0640 c3        1 MOL     -0.020852
    148 N13       -12.1600   -2.1410    0.2000 n4        1 MOL     -0.218223
    149 H67        -6.4670   -2.4590    2.2070 hn        1 MOL      0.363626
    150 H68        -6.7880   -3.4930    0.1830 h1        1 MOL      0.042739
    151 H69        -7.3870   -2.3640   -1.8930 hc        1 MOL      0.099152
    152 H70        -7.6940   -0.9200   -0.9550 hc        1 MOL      0.099152
    153 H71        -9.4230   -2.1280    0.4470 hc        1 MOL      0.014715
    154 H72        -9.0090   -3.6320   -0.4380 hc        1 MOL      0.014715
    155 H73        -9.9060   -2.6180   -2.4690 hc        1 MOL      0.036784
    156 H74       -10.1750   -1.1030   -1.6980 hc        1 MOL      0.036784
    157 H75       -11.5630   -3.7600   -1.0860 hx        1 MOL      0.072079
    158 H76       -12.2690   -2.3550   -1.8250 hx        1 MOL      0.072079
    159 H77       -13.0620   -2.5610    0.3590 hn        1 MOL      0.230296
    160 H78       -11.5760   -2.4780    0.9530 hn        1 MOL      0.230296
    161 H79       -12.2900   -1.1410    0.0670 hn        1 MOL      0.230296
    162 N14        -4.8500   -3.1460   -1.4750 n         1 MOL     -0.523858
    163 C49        -3.6230   -2.9190   -2.3120 c3        1 MOL      0.292900
    164 C50        -2.3030   -2.7060   -1.4990 c         1 MOL      0.394205
    165 O22        -1.6780   -1.6260   -1.6490 o         1 MOL     -0.637296
    166 C51        -3.5050   -4.0100   -3.3650 c3        1 MOL     -0.042677
    167 C52        -4.5290   -4.0920   -4.5380 c3        1 MOL     -0.405049
    168 C53        -4.2940   -5.3750   -5.4050 c         1 MOL      0.768163
    169 O23        -4.2210   -6.4860   -4.8830 o         1 MOL     -0.639116
    170 O24        -4.2530   -5.2640   -6.6340 o         1 MOL     -0.639116
    171 H80        -5.3680   -3.9780   -1.7140 hn        1 MOL      0.301211
    172 H81        -3.7460   -1.9570   -2.8250 h1        1 MOL     -0.028597
    173 H82        -3.3150   -4.9670   -2.8710 hc        1 MOL      0.070174
    174 H83        -2.5720   -3.9210   -3.9290 hc        1 MOL      0.070174
    175 H84        -4.3760   -3.1900   -5.1310 hc        1 MOL      0.083944
    176 H85        -5.5270   -4.0940   -4.0980 hc        1 MOL      0.083944
    177 N15        -1.7310   -3.6610   -0.8210 n         1 MOL     -0.348543
    178 C54        -2.2510   -4.9160   -0.3200 c3        1 MOL      0.120175
    179 H86        -3.3090   -4.9960   -0.5700 h1        1 MOL      0.003842
    180 H87        -1.7060   -5.7420   -0.7760 h1        1 MOL      0.003842
    181 H88        -2.1290   -4.9530    0.7620 h1        1 MOL      0.003842
    182 H89        -0.8590   -3.3370   -0.4380 hn        1 MOL      0.345747
    183 Ca1        -0.5760    0.6070   -1.1800 Ca        1 MOL      1.776648
    184 O25        -2.2690    0.8560   -3.4200 oh        1 MOL     -0.915748
    185 H90        -1.9650    0.7380   -4.3220 ho        1 MOL      0.437069
    186 H91        -3.2210    0.8390   -3.4820 ho        1 MOL      0.437069
    187 O26        -3.0080    0.9140   -0.2220 oh        1 MOL     -0.915748
    188 H92        -3.5390    0.1530   -0.4550 ho        1 MOL      0.437069
    189 H93        -3.5600    1.6640   -0.4140 ho        1 MOL      0.437069
    190 O27         1.4370   -0.3220   -2.9280 oh        1 MOL     -0.915748
    191 H94         1.5930    0.4990   -3.3880 ho        1 MOL      0.437069
    192 H95         2.2490   -0.5020   -2.4580 ho        1 MOL      0.437069
@<TRIPOS>BOND
     1    1    2 1   
     2    1    4 1   
     3    1    5 1   
     4    1    6 1   
     5    2    3 2   
     6    2    7 1   
     7    7    8 1   
     8    7   15 1   
     9    8    9 1   
    10    8   11 1   
    11    8   16 1   
    12    9   10 2   
    13    9   19 1   
    14   11   12 1   
    15   11   17 1   
    16   11   18 1   
    17   12   13 1   
    18   12   14 1   
    19   19   20 1   
    20   19   28 1   
    21   20   21 1   
    22   20   23 1   
    23   20   29 1   
    24   21   22 2   
    25   21   41 1   
    26   23   24 1   
    27   23   30 1   
    28   23   31 1   
    29   24   25 1   
    30   24   32 1   
    31   24   33 1   
    32   25   26 1   
    33   25   34 1   
    34   25   35 1   
    35   26   27 1   
    36   26   36 1   
    37   26   37 1   
    38   27   38 1   
    39   27   39 1   
    40   27   40 1   
    41   41   42 1   
    42   41   49 1   
    43   42   43 1   
    44   42   45 1   
    45   42   50 1   
    46   43   44 2   
    47   43   53 1   
    48   45   46 1   
    49   45   51 1   
    50   45   52 1   
    51   46   47 1   
    52   46   48 1   
    53   53   54 1   
    54   53   57 1   
    55   54   55 1   
    56   54   58 1   
    57   54   59 1   
    58   55   56 2   
    59   55   60 1   
    60   60   61 1   
    61   60   68 1   
    62   61   62 1   
    63   61   64 1   
    64   61   69 1   
    65   62   63 2   
    66   62   72 1   
    67   64   65 1   
    68   64   70 1   
    69   64   71 1   
    70   65   66 1   
    71   65   67 1   
    72   72   73 1   
    73   72   76 1   
    74   73   74 1   
    75   73   77 1   
    76   73   78 1   
    77   74   75 2   
    78   74   79 1   
    79   79   80 1   
    80   79   86 1   
    81   80   81 1   
    82   80   83 1   
    83   80   87 1   
    84   81   82 2   
    85   81   93 1   
    86   83   84 1   
    87   83   85 1   
    88   83   88 1   
    89   84   90 1   
    90   84   91 1   
    91   84   92 1   
    92   85   89 1   
    93   93   94 1   
    94   93  101 1   
    95   94   95 1   
    96   94   97 1   
    97   94  102 1   
    98   95   96 2   
    99   95  112 1   
   100   97   98 1   
   101   97   99 1   
   102   97  103 1   
   103   98  100 1   
   104   98  104 1   
   105   98  105 1   
   106   99  106 1   
   107   99  107 1   
   108   99  108 1   
   109  100  109 1   
   110  100  110 1   
   111  100  111 1   
   112  112  113 1   
   113  112  119 1   
   114  113  114 1   
   115  113  116 1   
   116  113  120 1   
   117  114  115 2   
   118  114  126 1   
   119  116  117 1   
   120  116  118 1   
   121  116  121 1   
   122  117  123 1   
   123  117  124 1   
   124  117  125 1   
   125  118  122 1   
   126  126  127 1   
   127  126  133 1   
   128  127  128 1   
   129  127  130 1   
   130  127  134 1   
   131  128  129 2   
   132  128  140 1   
   133  130  131 1   
   134  130  132 1   
   135  130  135 1   
   136  131  137 1   
   137  131  138 1   
   138  131  139 1   
   139  132  136 1   
   140  140  141 1   
   141  140  149 1   
   142  141  142 1   
   143  141  144 1   
   144  141  150 1   
   145  142  143 2   
   146  142  162 1   
   147  144  145 1   
   148  144  151 1   
   149  144  152 1   
   150  145  146 1   
   151  145  153 1   
   152  145  154 1   
   153  146  147 1   
   154  146  155 1   
   155  146  156 1   
   156  147  148 1   
   157  147  157 1   
   158  147  158 1   
   159  148  159 1   
   160  148  160 1   
   161  148  161 1   
   162  162  163 1   
   163  162  171 1   
   164  163  164 1   
   165  163  166 1   
   166  163  172 1   
   167  164  165 2   
   168  164  177 1   
   169  166  167 1   
   170  166  173 1   
   171  166  174 1   
   172  167  168 1   
   173  167  175 1   
   174  167  176 1   
   175  168  169 1   
   176  168  170 1   
   177  177  178 1   
   178  177  182 1   
   179  178  179 1   
   180  178  180 1   
   181  178  181 1   
   182  184  185 1   
   183  184  186 1   
   184  187  188 1   
   185  187  189 1   
   186  190  191 1   
   187  190  192 1   
@<TRIPOS>SUBSTRUCTURE
     1 MOL         1 TEMP              0 ****  ****    0 ROOT
