@<TRIPOS>MOLECULE
MOL
  192   187     1     0     0
SMALL
resp


@<TRIPOS>ATOM
      1 C1         -0.2030   -3.9740    2.9170 c3        1 MOL     -0.053728
      2 C2          0.8790   -4.0890    1.8430 c         1 MOL      0.735286
      3 O1          1.5010   -3.0380    1.5310 o         1 MOL     -0.528481
      4 H1         -0.0980   -3.0210    3.4360 hc        1 MOL     -0.004604
      5 H2         -1.1860   -4.0260    2.4510 hc        1 MOL     -0.004604
      6 H3         -0.0950   -4.7900    3.6320 hc        1 MOL     -0.004604
      7 N1          1.0370   -5.3190    1.2420 n         1 MOL     -0.530407
      8 C3          1.9920   -5.5960    0.1290 c3        1 MOL     -0.091213
      9 C4          3.4920   -5.1390    0.3960 c         1 MOL      0.620640
     10 O2          4.1810   -4.8600   -0.5770 o         1 MOL     -0.449274
     11 C5          1.4850   -5.1590   -1.2350 c3        1 MOL     -0.508941
     12 C6          0.0740   -5.6790   -1.5450 c         1 MOL      0.883383
     13 O3         -0.7970   -4.8050   -1.4470 o         1 MOL     -0.791154
     14 O4         -0.2910   -6.8060   -1.8290 o         1 MOL     -0.791154
     15 H4          0.4070   -6.0390    1.5570 hn        1 MOL      0.266396
     16 H5          2.1340   -6.6760    0.0040 h1        1 MOL      0.104631
     17 H6          2.1200   -5.5110   -2.0560 hc        1 MOL      0.187364
     18 H7          1.3730   -4.0710   -1.1800 hc        1 MOL      0.187364
     19 N2          3.9060   -5.0920    1.6640 n         1 MOL     -0.445789
     20 C7          5.1130   -4.3270    2.0050 c3        1 MOL     -0.549879
     21 C8          6.3880   -4.9170    1.3220 c         1 MOL      0.635239
     22 O5          6.6030   -6.0780    1.1600 o         1 MOL     -0.558020
     23 C9          5.1740   -4.0470    3.4910 c3        1 MOL      0.275524
     24 C10         5.3310   -5.3780    4.2680 c3        1 MOL     -0.005517
     25 C11         3.8520   -3.3790    4.0120 c3        1 MOL     -0.145279
     26 C12         5.7580   -5.4540    5.7510 c3        1 MOL     -0.208386
     27 H8          3.2760   -5.3930    2.4050 hn        1 MOL      0.302955
     28 H9          5.0180   -3.3600    1.5110 h1        1 MOL      0.274501
     29 H10         5.9890   -3.4150    3.8520 hc        1 MOL      0.007677
     30 H11         6.1200   -5.9840    3.8340 hc        1 MOL      0.022939
     31 H12         4.3770   -5.9030    4.1330 hc        1 MOL      0.022939
     32 H13         4.0580   -3.0380    5.0350 hc        1 MOL      0.018049
     33 H14         3.4840   -2.6080    3.3360 hc        1 MOL      0.018049
     34 H15         3.0890   -4.1430    4.1200 hc        1 MOL      0.018049
     35 H16         5.8350   -6.5000    6.0600 hc        1 MOL      0.046465
     36 H17         6.8090   -5.1770    5.8510 hc        1 MOL      0.046465
     37 H18         5.1410   -5.0360    6.5410 hc        1 MOL      0.046465
     38 N3          7.4070   -4.1100    1.0370 n         1 MOL     -0.477105
     39 C13         7.5990   -2.6580    1.1970 c3        1 MOL      0.266159
     40 C14         6.5970   -1.8520    0.4210 c         1 MOL      0.315805
     41 O6          6.3800   -0.7280    0.8250 o         1 MOL     -0.594600
     42 C15         8.9620   -2.2670    0.6760 c3        1 MOL     -0.401505
     43 C16         9.4500   -2.8430   -0.6760 c         1 MOL      0.804633
     44 O7          8.7700   -2.7870   -1.7130 o         1 MOL     -0.750181
     45 O8         10.5790   -3.3630   -0.6750 o         1 MOL     -0.750181
     46 H19         8.2980   -4.5320    0.8110 hn        1 MOL      0.278922
     47 H20         7.5880   -2.3200    2.2340 h1        1 MOL      0.009891
     48 H21         9.5820   -2.6510    1.4880 hc        1 MOL      0.077481
     49 H22         9.2080   -1.2040    0.6520 hc        1 MOL      0.077481
     50 N4          5.9570   -2.3640   -0.6300 n         1 MOL      0.070074
     51 C17         4.8740   -1.7840   -1.3000 c3        1 MOL     -0.386055
     52 C18         5.2840   -0.5340   -2.0420 c         1 MOL      0.811442
     53 O9          6.2660   -0.4570   -2.7300 o         1 MOL     -0.555283
     54 H23         6.1460   -3.3330   -0.8540 hn        1 MOL      0.183537
     55 H24         4.0880   -1.5200   -0.5840 h1        1 MOL      0.099965
     56 H25         4.4850   -2.5650   -1.9620 h1        1 MOL      0.099965
     57 N5          4.4420    0.4780   -1.9480 n         1 MOL     -0.598988
     58 C19         4.4620    1.6430   -2.8520 c3        1 MOL     -0.017189
     59 C20         4.9850    2.9810   -2.1420 c         1 MOL      0.463790
     60 O10         5.3870    3.9540   -2.8110 o         1 MOL     -0.569136
     61 C21         3.0730    1.8550   -3.4330 c3        1 MOL     -0.036158
     62 C22         1.9080    1.8200   -2.4710 c         1 MOL      0.657807
     63 O11         1.0280    0.9390   -2.6930 o         1 MOL     -0.688808
     64 O12         1.9380    2.6810   -1.5260 o         1 MOL     -0.688808
     65 H26         3.5830    0.4140   -1.4280 hn        1 MOL      0.314477
     66 H27         5.1350    1.4630   -3.6920 h1        1 MOL      0.089867
     67 H28         2.9720    1.0380   -4.1590 hc        1 MOL     -0.004301
     68 H29         3.0290    2.7570   -4.0250 hc        1 MOL     -0.004301
     69 N6          4.9240    2.9850   -0.8140 n         1 MOL     -0.161847
     70 C23         5.3160    4.0750   -0.0570 c3        1 MOL     -0.145936
     71 C24         4.4080    5.2810   -0.0320 c         1 MOL      0.586268
     72 O13         4.7170    6.2630    0.6790 o         1 MOL     -0.618643
     73 H30         4.4170    2.2040   -0.4260 hn        1 MOL      0.227107
     74 H31         6.3680    4.2970   -0.2390 h1        1 MOL      0.084299
     75 H32         5.3640    3.7320    0.9750 h1        1 MOL      0.084299
     76 N7          3.3310    5.2890   -0.7790 n         1 MOL     -0.203255
     77 C25         2.3460    6.3540   -0.9930 c3        1 MOL     -0.010131
     78 C26         1.5910    6.9400    0.2130 c         1 MOL      0.554899
     79 O14         0.9990    8.0630    0.1180 o         1 MOL     -0.509621
     80 C27         2.8650    7.3920   -1.9790 c3        1 MOL     -0.178231
     81 C28         3.2780    6.8300   -3.3140 c3        1 MOL     -0.077462
     82 C29         3.6920    7.8180   -4.4190 c         1 MOL      0.613182
     83 N8          3.7670    7.3210   -5.5680 n         1 MOL     -0.757535
     84 O15         4.2120    8.9090   -4.2640 o         1 MOL     -0.591379
     85 H33         3.1340    4.4480   -1.3140 hn        1 MOL      0.138421
     86 H34         1.5560    5.8370   -1.5490 h1        1 MOL      0.092247
     87 H35         3.7300    7.8880   -1.5280 hc        1 MOL      0.080986
     88 H36         2.1130    8.1710   -2.1110 hc        1 MOL      0.080986
     89 H37         2.4940    6.2060   -3.7440 hc        1 MOL      0.062750
     90 H38         4.0890    6.1140   -3.2060 hc        1 MOL      0.062750
     91 H39         3.6110    6.3520   -5.8010 hn        1 MOL      0.344383
     92 H40         4.1170    7.9530   -6.2700 hn        1 MOL      0.344383
     93 N9          1.6190    6.2730    1.4130 n         1 MOL     -0.474667
     94 C30         0.9850    6.7710    2.6340 c3        1 MOL     -0.146307
     95 C31        -0.0970    5.8350    3.1790 c         1 MOL      0.685223
     96 O16        -0.9420    6.2770    3.9150 o         1 MOL     -0.624043
     97 C32         1.9500    7.1050    3.7670 c3        1 MOL      0.449332
     98 C33         2.7330    5.8830    4.1810 c3        1 MOL     -0.488110
     99 C34         2.9040    8.1980    3.3760 c3        1 MOL     -0.488110
    100 H41         2.1500    5.4160    1.4480 hn        1 MOL      0.259250
    101 H42         0.4260    7.6750    2.3950 h1        1 MOL      0.093032
    102 H43         1.4620    7.4710    4.6590 hc        1 MOL     -0.037518
    103 H44         2.0640    5.2240    4.7350 hc        1 MOL      0.111255
    104 H45         3.3110    5.5340    3.3290 hc        1 MOL      0.111255
    105 H46         3.5120    6.2020    4.8760 hc        1 MOL      0.111255
    106 H47         2.3600    8.9740    2.8350 hc        1 MOL      0.111255
    107 H48         3.2010    8.5130    4.3730 hc        1 MOL      0.111255
    108 H49         3.7350    7.8160    2.7820 hc        1 MOL      0.111255
    109 N10         0.0240    4.5700    2.8840 n         1 MOL     -0.461539
    110 C35        -1.0460    3.5550    3.0850 c3        1 MOL      0.281265
    111 C36        -1.8530    3.3060    1.7120 c         1 MOL      0.458313
    112 O17        -1.4810    3.8270    0.6690 o         1 MOL     -0.533059
    113 C37        -0.2990    2.3350    3.6650 c3        1 MOL     -0.341906
    114 C38        -1.1830    1.0730    3.6660 c         1 MOL      0.662476
    115 N11        -0.8020    0.0310    2.9370 n         1 MOL     -0.818669
    116 O18        -2.2330    1.0470    4.3250 o         1 MOL     -0.568057
    117 H50         0.8300    4.3360    2.3180 hn        1 MOL      0.253053
    118 H51        -1.7210    3.8570    3.8760 h1        1 MOL      0.046781
    119 H52         0.1260    2.5580    4.6450 hc        1 MOL      0.085336
    120 H53         0.5800    2.0740    3.0850 hc        1 MOL      0.085336
    121 H54         0.0660    0.1390    2.4370 hn        1 MOL      0.388310
    122 H55        -1.3540   -0.8130    2.9070 hn        1 MOL      0.388310
    123 N12        -2.9020    2.5090    1.6980 n         1 MOL     -0.391580
    124 C39        -3.7610    2.2870    0.5620 c3        1 MOL      0.262122
    125 C40        -5.1230    1.7570    1.0070 c         1 MOL      0.376094
    126 O19        -5.3850    1.5370    2.2170 o         1 MOL     -0.541903
    127 C41        -3.2370    1.3080   -0.4500 c3        1 MOL     -0.224500
    128 C42        -3.7270    1.4860   -1.8690 ca        1 MOL      0.202217
    129 C43        -4.5000    0.4300   -2.4380 ca        1 MOL     -0.246290
    130 C44        -3.3720    2.6220   -2.6460 ca        1 MOL     -0.246290
    131 C45        -4.9310    0.5670   -3.7460 ca        1 MOL     -0.150068
    132 C46        -3.9040    2.8180   -3.9080 ca        1 MOL     -0.150068
    133 C47        -4.6470    1.7180   -4.4680 ca        1 MOL      0.212151
    134 O20        -5.2030    1.9530   -5.6930 oh        1 MOL     -0.462586
    135 H56        -3.2950    2.3690    2.6140 hn        1 MOL      0.221093
    136 H57        -3.8610    3.2220    0.0210 h1        1 MOL      0.028494
    137 H58        -3.4340    0.2770   -0.1770 hc        1 MOL      0.104579
    138 H59        -2.1490    1.2960   -0.5240 hc        1 MOL      0.104579
    139 H60        -4.9210   -0.4200   -1.9230 ha        1 MOL      0.188557
    140 H61        -2.7440    3.4000   -2.2400 ha        1 MOL      0.188557
    141 H62        -5.5190   -0.2330   -4.1940 ha        1 MOL      0.127397
    142 H63        -3.6710    3.7190   -4.4660 ha        1 MOL      0.127397
    143 H64        -5.7860    1.2170   -5.9090 ho        1 MOL      0.333465
    144 N13        -5.9870    1.3430    0.0920 n         1 MOL     -0.353696
    145 C48        -7.4230    1.0660    0.3680 c3        1 MOL      0.132437
    146 C49        -7.8300   -0.2550   -0.3990 c         1 MOL      0.540589
    147 O21        -8.5040   -0.1990   -1.4190 o         1 MOL     -0.559690
    148 C50        -8.2700    2.2780   -0.0930 c3        1 MOL     -0.039385
    149 C51        -8.0580    3.5500    0.7190 c3        1 MOL     -0.127961
    150 C52        -9.2120    4.4910    0.5130 c         1 MOL      0.693625
    151 O22        -9.8250    4.9540    1.4880 o         1 MOL     -0.722842
    152 O23        -9.5050    4.7770   -0.7050 o         1 MOL     -0.722842
    153 H65        -5.6740    1.4550   -0.8660 hn        1 MOL      0.186496
    154 H66        -7.5590    0.9040    1.4380 h1        1 MOL      0.097048
    155 H67        -9.3350    2.0110   -0.1290 hc        1 MOL      0.026334
    156 H68        -7.9790    2.4780   -1.1190 hc        1 MOL      0.026334
    157 H69        -7.1570    4.0410    0.3300 hc        1 MOL      0.009363
    158 H70        -7.9360    3.3460    1.7930 hc        1 MOL      0.009363
    159 N14        -7.4650   -1.4610    0.0880 n         1 MOL     -0.597620
    160 C53        -6.6140   -1.8500    1.1590 c3        1 MOL      0.235553
    161 C54        -7.3940   -1.9470    2.5160 c         1 MOL      0.444529
    162 O24        -8.6200   -2.2510    2.5210 o         1 MOL     -0.538581
    163 C55        -5.8570   -3.1440    0.8720 c3        1 MOL     -0.413901
    164 C56        -4.9460   -3.0030   -0.4340 c3        1 MOL      0.320491
    165 C57        -4.3790   -4.3020   -0.9840 c         1 MOL      0.646185
    166 O25        -3.9000   -4.3460   -2.1440 o         1 MOL     -0.729897
    167 O26        -4.3790   -5.3420   -0.3350 o         1 MOL     -0.729897
    168 H71        -7.7260   -2.2520   -0.4850 hn        1 MOL      0.343641
    169 H72        -5.9130   -1.0190    1.2960 h1        1 MOL      0.039804
    170 H73        -6.5960   -3.9070    0.6480 hc        1 MOL      0.066711
    171 H74        -5.2000   -3.5330    1.6500 hc        1 MOL      0.066711
    172 H75        -4.2590   -2.1620   -0.3890 hc        1 MOL     -0.088384
    173 H76        -5.5880   -2.6260   -1.2230 hc        1 MOL     -0.088384
    174 N15        -6.7950   -1.6420    3.6720 n         1 MOL     -0.313264
    175 C58        -7.4510   -1.4240    4.9700 c3        1 MOL     -0.079133
    176 H77        -8.5090   -1.6730    4.8880 h1        1 MOL      0.067424
    177 H78        -6.9860   -2.0600    5.7230 h1        1 MOL      0.067424
    178 H79        -7.3450   -0.3790    5.2600 h1        1 MOL      0.067424
    179 H80        -5.7830   -1.6190    3.6850 hn        1 MOL      0.263839
    180 Ca1        -2.8570   -6.7560   -1.9080 Ca        1 MOL      1.695528
    181 O27        -5.0750   -6.5910   -3.4580 oh        1 MOL     -0.826650
    182 H81        -5.2790   -6.8620   -4.3560 ho        1 MOL      0.403660
    183 H82        -5.9000   -6.2130   -3.1290 ho        1 MOL      0.403660
    184 O28        -1.9980   -8.8560   -3.2870 oh        1 MOL     -0.826650
    185 H83        -2.2380   -9.4610   -4.0000 ho        1 MOL      0.403660
    186 H84        -1.0460   -8.7680   -3.3650 ho        1 MOL      0.403660
    187 O29        -2.1650   -6.1070   -4.4400 oh        1 MOL     -0.826650
    188 H85        -1.8660   -5.2180   -4.6320 ho        1 MOL      0.403660
    189 H86        -1.8780   -6.6210   -5.1990 ho        1 MOL      0.403660
    190 O30        -4.4550   -8.5260   -0.6160 oh        1 MOL     -0.826650
    191 H87        -4.9670   -7.9840   -0.0260 ho        1 MOL      0.403660
    192 H88        -5.0620   -9.1910   -0.9220 ho        1 MOL      0.403660
@<TRIPOS>BOND
     1    1    2 1   
     2    1    4 1   
     3    1    5 1   
     4    1    6 1   
     5    2    3 2   
     6    2    7 1   
     7    7    8 1   
     8    7   15 1   
     9    8    9 1   
    10    8   11 1   
    11    8   16 1   
    12    9   10 2   
    13    9   19 1   
    14   11   12 1   
    15   11   17 1   
    16   11   18 1   
    17   12   13 1   
    18   12   14 1   
    19   19   20 1   
    20   19   27 1   
    21   20   21 1   
    22   20   23 1   
    23   20   28 1   
    24   21   22 2   
    25   21   38 1   
    26   23   24 1   
    27   23   25 1   
    28   23   29 1   
    29   24   26 1   
    30   24   30 1   
    31   24   31 1   
    32   25   32 1   
    33   25   33 1   
    34   25   34 1   
    35   26   35 1   
    36   26   36 1   
    37   26   37 1   
    38   38   39 1   
    39   38   46 1   
    40   39   40 1   
    41   39   42 1   
    42   39   47 1   
    43   40   41 2   
    44   40   50 1   
    45   42   43 1   
    46   42   48 1   
    47   42   49 1   
    48   43   44 1   
    49   43   45 1   
    50   50   51 1   
    51   50   54 1   
    52   51   52 1   
    53   51   55 1   
    54   51   56 1   
    55   52   53 2   
    56   52   57 1   
    57   57   58 1   
    58   57   65 1   
    59   58   59 1   
    60   58   61 1   
    61   58   66 1   
    62   59   60 2   
    63   59   69 1   
    64   61   62 1   
    65   61   67 1   
    66   61   68 1   
    67   62   63 1   
    68   62   64 1   
    69   69   70 1   
    70   69   73 1   
    71   70   71 1   
    72   70   74 1   
    73   70   75 1   
    74   71   72 2   
    75   71   76 1   
    76   76   77 1   
    77   76   85 1   
    78   77   78 1   
    79   77   80 1   
    80   77   86 1   
    81   78   79 2   
    82   78   93 1   
    83   80   81 1   
    84   80   87 1   
    85   80   88 1   
    86   81   82 1   
    87   81   89 1   
    88   81   90 1   
    89   82   83 1   
    90   82   84 2   
    91   83   91 1   
    92   83   92 1   
    93   93   94 1   
    94   93  100 1   
    95   94   95 1   
    96   94   97 1   
    97   94  101 1   
    98   95   96 2   
    99   95  109 1   
   100   97   98 1   
   101   97   99 1   
   102   97  102 1   
   103   98  103 1   
   104   98  104 1   
   105   98  105 1   
   106   99  106 1   
   107   99  107 1   
   108   99  108 1   
   109  109  110 1   
   110  109  117 1   
   111  110  111 1   
   112  110  113 1   
   113  110  118 1   
   114  111  112 2   
   115  111  123 1   
   116  113  114 1   
   117  113  119 1   
   118  113  120 1   
   119  114  115 1   
   120  114  116 2   
   121  115  121 1   
   122  115  122 1   
   123  123  124 1   
   124  123  135 1   
   125  124  125 1   
   126  124  127 1   
   127  124  136 1   
   128  125  126 2   
   129  125  144 1   
   130  127  128 1   
   131  127  137 1   
   132  127  138 1   
   133  128  129 ar  
   134  128  130 ar  
   135  129  131 ar  
   136  129  139 1   
   137  130  132 ar  
   138  130  140 1   
   139  131  133 ar  
   140  131  141 1   
   141  132  133 ar  
   142  132  142 1   
   143  133  134 1   
   144  134  143 1   
   145  144  145 1   
   146  144  153 1   
   147  145  146 1   
   148  145  148 1   
   149  145  154 1   
   150  146  147 2   
   151  146  159 1   
   152  148  149 1   
   153  148  155 1   
   154  148  156 1   
   155  149  150 1   
   156  149  157 1   
   157  149  158 1   
   158  150  151 1   
   159  150  152 1   
   160  159  160 1   
   161  159  168 1   
   162  160  161 1   
   163  160  163 1   
   164  160  169 1   
   165  161  162 2   
   166  161  174 1   
   167  163  164 1   
   168  163  170 1   
   169  163  171 1   
   170  164  165 1   
   171  164  172 1   
   172  164  173 1   
   173  165  166 1   
   174  165  167 1   
   175  174  175 1   
   176  174  179 1   
   177  175  176 1   
   178  175  177 1   
   179  175  178 1   
   180  181  182 1   
   181  181  183 1   
   182  184  185 1   
   183  184  186 1   
   184  187  188 1   
   185  187  189 1   
   186  190  191 1   
   187  190  192 1   
@<TRIPOS>SUBSTRUCTURE
     1 MOL         1 TEMP              0 ****  ****    0 ROOT
