@<TRIPOS>MOLECULE
MOL
  178   175     1     0     0
SMALL
resp


@<TRIPOS>ATOM
      1 C1        -12.8340   -5.8610   -2.6830 c3        1 MOL     -0.432306
      2 C2        -11.9560   -5.5030   -1.5170 c         1 MOL      0.826796
      3 O1        -11.7860   -6.2580   -0.6360 o         1 MOL     -0.604035
      4 H1        -12.3410   -5.5710   -3.6110 hc        1 MOL      0.107805
      5 H2        -13.0110   -6.9360   -2.6880 hc        1 MOL      0.107805
      6 H3        -13.7850   -5.3370   -2.5970 hc        1 MOL      0.107805
      7 N1        -11.3940   -4.2740   -1.4440 n         1 MOL     -0.766989
      8 C3        -11.1200   -3.1200   -2.3850 c3        1 MOL      0.297961
      9 C4        -11.8020   -1.7930   -2.0360 c         1 MOL      0.513234
     10 O2        -11.9940   -0.9510   -2.8720 o         1 MOL     -0.572354
     11 C5         -9.6400   -2.8330   -2.5040 c3        1 MOL     -0.192820
     12 C6         -8.9890   -2.4680   -1.1450 c         1 MOL      0.712461
     13 O3         -7.7540   -2.1780   -1.1720 o         1 MOL     -0.707539
     14 O4         -9.6720   -2.2860   -0.1540 o         1 MOL     -0.707539
     15 H4        -11.1200   -4.0800   -0.4830 hn        1 MOL      0.332437
     16 H5        -11.4510   -3.3920   -3.3790 h1        1 MOL      0.011892
     17 H6         -9.5490   -1.9620   -3.1420 hc        1 MOL      0.056262
     18 H7         -9.1280   -3.6520   -3.0190 hc        1 MOL      0.056262
     19 N2        -12.3940   -1.6600   -0.8660 n         1 MOL     -0.522790
     20 C7        -13.3500   -0.5060   -0.4720 c3        1 MOL      0.223625
     21 C8        -12.4780    0.7350   -0.0410 c         1 MOL      0.372248
     22 O5        -13.0070    1.7910    0.3310 o         1 MOL     -0.552736
     23 C9        -14.4170   -0.8820    0.5600 c3        1 MOL     -0.312548
     24 H8        -12.2100   -2.3970   -0.2010 hn        1 MOL      0.298259
     25 H9        -13.7980   -0.1160   -1.3910 h1        1 MOL      0.085788
     26 H10       -15.1480   -0.0730    0.6530 hc        1 MOL      0.094440
     27 H11       -15.0510   -1.6660    0.1650 hc        1 MOL      0.094440
     28 H12       -14.0010   -1.1790    1.5270 hc        1 MOL      0.094440
     29 N3        -11.1390    0.7650    0.0070 n         1 MOL      0.036884
     30 C10       -10.2470    1.8590    0.1100 c3        1 MOL     -0.278706
     31 C11        -8.8260    1.6170   -0.4310 c         1 MOL      0.545549
     32 O6         -8.4440    0.4730   -0.7870 o         1 MOL     -0.494042
     33 C12       -10.2750    2.4010    1.6230 c3        1 MOL     -0.296412
     34 C13        -9.4830    1.5670    2.6420 c         1 MOL      0.674566
     35 O7         -8.5470    0.8760    2.3060 o         1 MOL     -0.674425
     36 O8         -9.8400    1.7290    3.8610 o         1 MOL     -0.674425
     37 H13       -10.7220   -0.1350   -0.1830 hn        1 MOL      0.061822
     38 H14       -10.7620    2.6300   -0.4710 h1        1 MOL      0.126924
     39 H15       -11.2710    2.6050    2.0010 hc        1 MOL      0.109379
     40 H16        -9.8020    3.3820    1.6310 hc        1 MOL      0.109379
     41 N4         -8.0230    2.6770   -0.5490 n         1 MOL     -0.409956
     42 C14        -6.6700    2.5850   -0.9820 c3        1 MOL     -0.064436
     43 C15        -5.7400    1.7470   -0.1240 c         1 MOL      0.477243
     44 O9         -6.1060    1.1580    0.9010 o         1 MOL     -0.455133
     45 H17        -8.3570    3.5950   -0.2810 hn        1 MOL      0.318919
     46 H18        -6.3040    3.6090   -1.1220 h1        1 MOL      0.074263
     47 H19        -6.6360    2.0640   -1.9480 h1        1 MOL      0.074263
     48 N5         -4.4980    1.6630   -0.5240 n         1 MOL     -0.355097
     49 C16        -3.4310    0.9030    0.0220 c3        1 MOL     -0.155959
     50 C17        -2.0870    1.6230   -0.0810 c         1 MOL      0.583878
     51 O10        -1.0590    1.2220    0.5350 o         1 MOL     -0.464343
     52 C18        -3.2670   -0.5130   -0.6440 c3        1 MOL     -0.308600
     53 C19        -4.5220   -1.3010   -0.6160 c         1 MOL      0.612106
     54 N6         -5.0810   -1.5350   -1.7590 n         1 MOL     -0.582193
     55 O11        -4.9880   -1.6740    0.4510 o         1 MOL     -0.568538
     56 H20        -4.2440    2.1420   -1.3780 hn        1 MOL      0.230136
     57 H21        -3.6240    0.7840    1.0880 h1        1 MOL      0.178553
     58 H22        -2.4360   -1.0430   -0.1900 hc        1 MOL      0.126526
     59 H23        -2.9440   -0.3590   -1.6760 hc        1 MOL      0.126526
     60 H24        -4.4210   -1.2590   -2.4670 hn        1 MOL      0.293576
     61 H25        -6.0400   -1.8270   -1.8470 hn        1 MOL      0.293576
     62 N7         -2.0950    2.7720   -0.7810 n         1 MOL     -0.437043
     63 C20        -0.9300    3.5840   -1.0400 c3        1 MOL     -0.189721
     64 C21        -0.6770    4.5150    0.0670 c         1 MOL      0.735628
     65 O12        -1.5360    4.8240    0.9130 o         1 MOL     -0.596261
     66 H26        -2.9430    3.2790   -0.9850 hn        1 MOL      0.282479
     67 H27        -1.1800    4.1330   -1.9450 h1        1 MOL      0.145592
     68 H28        -0.0790    2.9190   -1.1230 h1        1 MOL      0.145592
     69 N8          0.4610    5.2110    0.0410 n         1 MOL     -0.574018
     70 C22         1.3980    5.4420   -1.0500 c3        1 MOL     -0.029723
     71 C23         2.8700    4.8430   -0.7770 c         1 MOL      0.515365
     72 O13         3.8310    5.2710   -1.4320 o         1 MOL     -0.563252
     73 C24         1.3610    6.8770   -1.5960 c3        1 MOL      0.368566
     74 C25        -0.0130    7.2070   -2.1400 c3        1 MOL     -0.283241
     75 O14         1.8190    7.8250   -0.6190 oh        1 MOL     -0.573995
     76 H29         0.6180    5.7780    0.8590 hn        1 MOL      0.318817
     77 H30         1.1620    4.8300   -1.9160 h1        1 MOL      0.044526
     78 H31         2.0680    7.0120   -2.4180 h1        1 MOL      0.054451
     79 H32         1.0020    7.8610   -0.1120 ho        1 MOL      0.350548
     80 H33        -0.7970    7.0830   -1.4000 hc        1 MOL      0.057734
     81 H34        -0.0330    8.2360   -2.5350 hc        1 MOL      0.057734
     82 H35        -0.2430    6.5790   -2.9920 hc        1 MOL      0.057734
     83 N9          3.0510    3.8030    0.0580 n         1 MOL     -0.365509
     84 C26         4.3860    3.1580    0.3630 c3        1 MOL      0.102667
     85 C27         4.2750    1.5830    0.2220 c         1 MOL      0.321448
     86 O15         3.1950    1.0200    0.3780 o         1 MOL     -0.495928
     87 C28         4.9620    3.5730    1.7370 c3        1 MOL      0.196243
     88 C29         5.0890    5.0670    1.8370 c3        1 MOL     -0.028301
     89 C30         6.2560    2.8610    1.9940 c3        1 MOL      0.016013
     90 C31         5.6080    5.6640    3.1970 c3        1 MOL     -0.259595
     91 H36         2.2370    3.4870    0.5570 hn        1 MOL      0.226140
     92 H37         5.0850    3.5740   -0.3690 h1        1 MOL      0.045539
     93 H38         4.2620    3.1690    2.4760 hc        1 MOL      0.011269
     94 H39         4.0860    5.4660    1.7290 hc        1 MOL     -0.002825
     95 H40         5.7320    5.4610    1.0380 hc        1 MOL     -0.002825
     96 H41         6.5570    2.9020    3.0350 hc        1 MOL     -0.022186
     97 H42         6.2090    1.7850    1.8320 hc        1 MOL     -0.022186
     98 H43         7.0140    3.2570    1.3150 hc        1 MOL     -0.022186
     99 H44         6.0150    6.6690    3.1560 hc        1 MOL      0.059628
    100 H45         4.8240    5.6390    3.9560 hc        1 MOL      0.059628
    101 H46         6.4250    5.0860    3.6050 hc        1 MOL      0.059628
    102 N10         5.2720    0.8310   -0.3330 n         1 MOL     -0.169220
    103 C32         6.4640    1.2840   -1.0980 c3        1 MOL      0.068427
    104 C33         7.4920    0.1620   -1.2470 c         1 MOL      0.595611
    105 O16         7.1350   -0.9680   -0.8040 o         1 MOL     -0.496994
    106 C34         5.9170    1.7080   -2.5090 c3        1 MOL     -0.318869
    107 C35         5.4350    0.5540   -3.3730 c         1 MOL      0.702126
    108 O17         4.2700    0.1640   -3.2870 o         1 MOL     -0.711170
    109 O18         6.2660   -0.0660   -4.0910 o         1 MOL     -0.711170
    110 H47         5.1600   -0.1680   -0.3140 hn        1 MOL      0.273995
    111 H48         7.0270    2.1010   -0.6500 h1        1 MOL      0.065804
    112 H49         6.7360    2.2270   -3.0040 hc        1 MOL      0.044504
    113 H50         5.1570    2.4800   -2.4560 hc        1 MOL      0.044504
    114 N11         8.7250    0.4060   -1.7040 n         1 MOL     -0.836214
    115 C36         9.8680   -0.4430   -1.5750 c3        1 MOL      0.725516
    116 C37        10.7300   -0.0790   -0.3950 c         1 MOL      0.155719
    117 O19        11.0800    1.1020   -0.2480 o         1 MOL     -0.525996
    118 C38        10.7910   -0.3090   -2.8180 c3        1 MOL     -0.203359
    119 C39        11.7360   -1.4980   -2.9580 ca        1 MOL     -0.009512
    120 C40        11.1960   -2.7650   -3.2250 ca        1 MOL     -0.092652
    121 C41        13.1020   -1.3060   -2.9680 ca        1 MOL     -0.092652
    122 C42        12.0430   -3.9150   -3.2610 ca        1 MOL     -0.180628
    123 C43        14.0140   -2.3820   -2.9740 ca        1 MOL     -0.180628
    124 C44        13.4460   -3.6630   -3.0350 ca        1 MOL     -0.068132
    125 H51         8.9070    1.3230   -2.0750 hn        1 MOL      0.352123
    126 H52         9.3830   -1.4090   -1.4780 h1        1 MOL      0.015178
    127 H53        11.3580    0.6120   -2.7950 hc        1 MOL      0.056484
    128 H54        10.0730   -0.3160   -3.6380 hc        1 MOL      0.056484
    129 H55        10.1250   -2.8730   -3.3420 ha        1 MOL      0.111697
    130 H56        13.5340   -0.3200   -2.9110 ha        1 MOL      0.111697
    131 H57        11.6670   -4.9260   -3.2950 ha        1 MOL      0.125902
    132 H58        15.0590   -2.1360   -3.0080 ha        1 MOL      0.125902
    133 H59        14.1780   -4.4630   -3.0130 ha        1 MOL      0.072696
    134 N12        11.1610   -0.9670    0.5010 n         1 MOL      0.011437
    135 C45        11.0440   -2.4400    0.2950 c3        1 MOL      0.060013
    136 C46         9.6450   -2.9690    0.4980 c         1 MOL      0.454541
    137 O20         9.3460   -4.0030   -0.0650 o         1 MOL     -0.525156
    138 C47        12.0170   -3.1360    1.2280 c3        1 MOL     -0.051940
    139 C48        12.7950   -1.9910    1.9140 c3        1 MOL      0.115245
    140 C49        12.0240   -0.7040    1.5770 c3        1 MOL     -0.178784
    141 H60        11.4370   -2.6410   -0.7060 h1        1 MOL      0.050754
    142 H61        11.5050   -3.8100    1.9190 hc        1 MOL      0.038518
    143 H62        12.6860   -3.8260    0.7150 hc        1 MOL      0.038518
    144 H63        12.9670   -2.1460    2.9820 hc        1 MOL     -0.026899
    145 H64        13.7450   -1.9410    1.3900 hc        1 MOL     -0.026899
    146 H65        11.4070   -0.3380    2.4060 h1        1 MOL      0.079442
    147 H66        12.7710    0.0250    1.2660 h1        1 MOL      0.079442
    148 N13         8.8970   -2.5350    1.5220 n         1 MOL     -0.762088
    149 C50         7.6610   -3.1350    2.0270 c3        1 MOL      0.393225
    150 C51         8.0130   -4.4850    2.6540 c         1 MOL      0.434080
    151 O21         8.9110   -4.5350    3.4120 o         1 MOL     -0.575564
    152 C52         7.0490   -2.2480    3.1250 c3        1 MOL      0.093891
    153 C53         6.2600   -1.0520    2.6530 c3        1 MOL     -0.100908
    154 C54         5.4160   -0.3770    3.7470 c         1 MOL      0.775213
    155 O22         4.4130   -1.0390    4.1680 o         1 MOL     -0.739418
    156 O23         5.6550    0.7010    4.3110 o         1 MOL     -0.739418
    157 H67         9.3320   -1.8130    2.0780 hn        1 MOL      0.376015
    158 H68         6.9870   -3.2280    1.1770 h1        1 MOL      0.070409
    159 H69         7.7280   -1.8520    3.8660 hc        1 MOL     -0.036993
    160 H70         6.3390   -2.8890    3.6550 hc        1 MOL     -0.036993
    161 H71         5.5750   -1.3570    1.8630 hc        1 MOL     -0.055900
    162 H72         6.9250   -0.3000    2.2300 hc        1 MOL     -0.055900
    163 N14         7.3230   -5.6090    2.4000 n         1 MOL     -0.296461
    164 C55         6.0650   -5.8040    1.6660 c3        1 MOL     -0.200365
    165 H73         6.2300   -5.6160    0.6050 h1        1 MOL      0.087444
    166 H74         5.7190   -6.8290    1.8030 h1        1 MOL      0.087444
    167 H75         5.3120   -5.1130    2.0440 h1        1 MOL      0.087444
    168 H76         7.6840   -6.4060    2.9040 hn        1 MOL      0.245799
    169 Ca1        -7.5040   -1.0920    1.1760 Ca        1 MOL      1.739185
    170 O24        -7.0910   -3.9550    1.3410 oh        1 MOL     -0.866657
    171 H77        -7.7480   -4.5710    1.6380 ho        1 MOL      0.421023
    172 H78        -6.3530   -4.5080    1.0710 ho        1 MOL      0.421023
    173 O25        -5.8670   -0.6870    3.2880 oh        1 MOL     -0.866657
    174 H79        -5.8800   -1.3040    4.0190 ho        1 MOL      0.421023
    175 H80        -5.3270    0.0380    3.5880 ho        1 MOL      0.421023
    176 O26        -8.6670   -2.2340    3.3770 oh        1 MOL     -0.866657
    177 H81        -8.7540   -3.1910    3.4130 ho        1 MOL      0.421023
    178 H82        -8.8590   -1.9410    4.2610 ho        1 MOL      0.421023
@<TRIPOS>BOND
     1    1    2 1   
     2    1    4 1   
     3    1    5 1   
     4    1    6 1   
     5    2    3 2   
     6    2    7 1   
     7    7    8 1   
     8    7   15 1   
     9    8    9 1   
    10    8   11 1   
    11    8   16 1   
    12    9   10 2   
    13    9   19 1   
    14   11   12 1   
    15   11   17 1   
    16   11   18 1   
    17   12   13 1   
    18   12   14 1   
    19   19   20 1   
    20   19   24 1   
    21   20   21 1   
    22   20   23 1   
    23   20   25 1   
    24   21   22 2   
    25   21   29 1   
    26   23   26 1   
    27   23   27 1   
    28   23   28 1   
    29   29   30 1   
    30   29   37 1   
    31   30   31 1   
    32   30   33 1   
    33   30   38 1   
    34   31   32 2   
    35   31   41 1   
    36   33   34 1   
    37   33   39 1   
    38   33   40 1   
    39   34   35 1   
    40   34   36 1   
    41   41   42 1   
    42   41   45 1   
    43   42   43 1   
    44   42   46 1   
    45   42   47 1   
    46   43   44 2   
    47   43   48 1   
    48   48   49 1   
    49   48   56 1   
    50   49   50 1   
    51   49   52 1   
    52   49   57 1   
    53   50   51 2   
    54   50   62 1   
    55   52   53 1   
    56   52   58 1   
    57   52   59 1   
    58   53   54 1   
    59   53   55 2   
    60   54   60 1   
    61   54   61 1   
    62   62   63 1   
    63   62   66 1   
    64   63   64 1   
    65   63   67 1   
    66   63   68 1   
    67   64   65 2   
    68   64   69 1   
    69   69   70 1   
    70   69   76 1   
    71   70   71 1   
    72   70   73 1   
    73   70   77 1   
    74   71   72 2   
    75   71   83 1   
    76   73   74 1   
    77   73   75 1   
    78   73   78 1   
    79   74   80 1   
    80   74   81 1   
    81   74   82 1   
    82   75   79 1   
    83   83   84 1   
    84   83   91 1   
    85   84   85 1   
    86   84   87 1   
    87   84   92 1   
    88   85   86 2   
    89   85  102 1   
    90   87   88 1   
    91   87   89 1   
    92   87   93 1   
    93   88   90 1   
    94   88   94 1   
    95   88   95 1   
    96   89   96 1   
    97   89   97 1   
    98   89   98 1   
    99   90   99 1   
   100   90  100 1   
   101   90  101 1   
   102  102  103 1   
   103  102  110 1   
   104  103  104 1   
   105  103  106 1   
   106  103  111 1   
   107  104  105 2   
   108  104  114 1   
   109  106  107 1   
   110  106  112 1   
   111  106  113 1   
   112  107  108 1   
   113  107  109 1   
   114  114  115 1   
   115  114  125 1   
   116  115  116 1   
   117  115  118 1   
   118  115  126 1   
   119  116  117 2   
   120  116  134 1   
   121  118  119 1   
   122  118  127 1   
   123  118  128 1   
   124  119  120 ar  
   125  119  121 ar  
   126  120  122 ar  
   127  120  129 1   
   128  121  123 ar  
   129  121  130 1   
   130  122  124 ar  
   131  122  131 1   
   132  123  124 ar  
   133  123  132 1   
   134  124  133 1   
   135  134  135 1   
   136  134  140 1   
   137  135  136 1   
   138  135  138 1   
   139  135  141 1   
   140  136  137 2   
   141  136  148 1   
   142  138  139 1   
   143  138  142 1   
   144  138  143 1   
   145  139  140 1   
   146  139  144 1   
   147  139  145 1   
   148  140  146 1   
   149  140  147 1   
   150  148  149 1   
   151  148  157 1   
   152  149  150 1   
   153  149  152 1   
   154  149  158 1   
   155  150  151 2   
   156  150  163 1   
   157  152  153 1   
   158  152  159 1   
   159  152  160 1   
   160  153  154 1   
   161  153  161 1   
   162  153  162 1   
   163  154  155 1   
   164  154  156 1   
   165  163  164 1   
   166  163  168 1   
   167  164  165 1   
   168  164  166 1   
   169  164  167 1   
   170  170  171 1   
   171  170  172 1   
   172  173  174 1   
   173  173  175 1   
   174  176  177 1   
   175  176  178 1   
@<TRIPOS>SUBSTRUCTURE
     1 MOL         1 TEMP              0 ****  ****    0 ROOT
