@<TRIPOS>MOLECULE
MOL
  178   175     1     0     0
SMALL
resp


@<TRIPOS>ATOM
      1 C1          2.2530   -1.6840    5.0630 c3        1 MOL     -0.412276
      2 C2          3.4830   -1.2850    4.1920 c         1 MOL      0.645921
      3 O1          3.3040   -0.4960    3.2860 o         1 MOL     -0.558981
      4 H1          2.5980   -2.0580    6.0270 hc        1 MOL      0.101685
      5 H2          1.6180   -0.8110    5.2180 hc        1 MOL      0.101685
      6 H3          1.6840   -2.4620    4.5540 hc        1 MOL      0.101685
      7 N1          4.6730   -1.8620    4.3760 n         1 MOL     -0.413492
      8 C3          5.8360   -1.3360    3.6910 c3        1 MOL      0.169158
      9 C4          6.0560   -1.9160    2.2800 c         1 MOL      0.301687
     10 O2          7.0710   -1.7170    1.6290 o         1 MOL     -0.364150
     11 C5          6.9800   -1.6300    4.6440 c3        1 MOL     -0.357334
     12 C6          8.3590   -1.0420    4.3200 c         1 MOL      0.769955
     13 O3          9.3940   -1.6960    4.2980 o         1 MOL     -0.694497
     14 O4          8.4760    0.1830    4.1320 o         1 MOL     -0.694497
     15 H4          4.7250   -2.4210    5.2140 hn        1 MOL      0.244612
     16 H5          5.7440   -0.2470    3.6320 h1        1 MOL      0.055143
     17 H6          7.0710   -2.7180    4.5690 hc        1 MOL      0.053812
     18 H7          6.7250   -1.3300    5.6720 hc        1 MOL      0.053812
     19 N2          5.1310   -2.8550    1.8440 n         1 MOL     -0.201175
     20 C7          4.9980   -3.5090    0.5620 c3        1 MOL      0.126033
     21 C8          4.6900   -2.4810   -0.5700 c         1 MOL      0.508531
     22 O5          3.5690   -2.2880   -0.9770 o         1 MOL     -0.654546
     23 C9          6.1910   -4.4600    0.1820 c3        1 MOL     -0.366286
     24 H8          4.4090   -3.1250    2.4950 hn        1 MOL      0.147000
     25 H9          4.1600   -4.2050    0.6270 h1        1 MOL      0.083329
     26 H10         5.9820   -5.0120   -0.7420 hc        1 MOL      0.092800
     27 H11         7.0150   -3.7690    0.0280 hc        1 MOL      0.092800
     28 H12         6.4260   -5.1800    0.9560 hc        1 MOL      0.092800
     29 N3          5.7390   -1.7820   -1.0430 n         1 MOL     -0.456936
     30 C10         5.7240   -0.8850   -2.2240 c3        1 MOL      0.332963
     31 C11         5.7750    0.5810   -1.7870 c         1 MOL      0.414846
     32 O6          6.1860    1.4540   -2.5900 o         1 MOL     -0.504219
     33 C12         6.6690   -1.2180   -3.3720 c3        1 MOL     -0.390196
     34 C13         8.1410   -1.0230   -3.0690 c         1 MOL      0.754299
     35 O7          8.9250   -1.1340   -4.0230 o         1 MOL     -0.702265
     36 O8          8.5860   -0.6970   -1.9430 o         1 MOL     -0.702265
     37 H13         6.6050   -1.8240   -0.5260 hn        1 MOL      0.256782
     38 H14         4.8010   -1.0990   -2.7590 h1        1 MOL      0.029930
     39 H15         6.4260   -0.6160   -4.2490 hc        1 MOL      0.051207
     40 H16         6.5230   -2.2830   -3.5560 hc        1 MOL      0.051207
     41 N4          5.3220    0.9160   -0.5860 n         1 MOL     -0.241761
     42 C14         5.3570    2.2670    0.0240 c3        1 MOL     -0.344148
     43 C15         4.2580    3.1350   -0.5810 c         1 MOL      0.665660
     44 O9          4.3850    4.3720   -0.4380 o         1 MOL     -0.557165
     45 H17         4.8060    0.1780   -0.1340 hn        1 MOL      0.259412
     46 H18         6.3910    2.5960   -0.0000 h1        1 MOL      0.177485
     47 H19         5.1260    2.0980    1.0800 h1        1 MOL      0.177485
     48 N5          3.3020    2.5730   -1.3270 n         1 MOL     -0.400382
     49 C16         2.3240    3.3600   -2.0850 c3        1 MOL     -0.014962
     50 C17         1.7030    4.5650   -1.3470 c         1 MOL      0.538476
     51 O10         1.5500    4.4330   -0.1510 o         1 MOL     -0.449012
     52 C18         1.1600    2.4510   -2.6880 c3        1 MOL     -0.284874
     53 C19         1.6050    1.1650   -3.3410 c         1 MOL      0.752780
     54 N6          2.2350    1.3060   -4.4510 n         1 MOL     -0.829519
     55 O11         1.5040    0.0850   -2.8640 o         1 MOL     -0.721115
     56 H20         3.0910    1.5930   -1.2270 hn        1 MOL      0.277855
     57 H21         2.8400    3.8270   -2.9270 h1        1 MOL      0.036143
     58 H22         0.5580    3.0630   -3.3650 hc        1 MOL      0.120389
     59 H23         0.5520    2.1310   -1.8370 hc        1 MOL      0.120389
     60 H24         2.2910    2.2340   -4.8610 hn        1 MOL      0.366124
     61 H25         2.4160    0.4850   -5.0050 hn        1 MOL      0.366124
     62 N7          1.2130    5.5600   -2.0900 n         1 MOL     -0.435572
     63 C20         0.7300    6.7650   -1.6080 c3        1 MOL      0.037049
     64 C21        -0.7690    6.8960   -1.5160 c         1 MOL      0.471883
     65 O12        -1.4530    6.3250   -2.3670 o         1 MOL     -0.518411
     66 H26         1.2200    5.4180   -3.0870 hn        1 MOL      0.292897
     67 H27         1.1280    7.6660   -2.0810 h1        1 MOL      0.043020
     68 H28         1.0490    6.7310   -0.5640 h1        1 MOL      0.043020
     69 N8         -1.3280    7.4980   -0.4750 n         1 MOL     -0.307411
     70 C22        -2.8080    7.5770   -0.2150 c3        1 MOL     -0.373799
     71 C23        -3.3530    6.3160    0.5570 c         1 MOL      0.468667
     72 O13        -4.5400    6.2640    0.9020 o         1 MOL     -0.573876
     73 C24        -3.2080    8.9820    0.2790 c3        1 MOL      0.501639
     74 C25        -2.8600    9.2840    1.7620 c3        1 MOL     -0.318016
     75 O14        -2.4680    9.9400   -0.4160 oh        1 MOL     -0.636496
     76 H29        -0.6860    8.0340    0.0930 hn        1 MOL      0.241001
     77 H30        -3.3060    7.4450   -1.1790 h1        1 MOL      0.196505
     78 H31        -4.2520    9.2500    0.0910 h1        1 MOL      0.039626
     79 H32        -1.5350    9.7480   -0.3080 ho        1 MOL      0.364380
     80 H33        -1.8020    9.0820    1.9250 hc        1 MOL      0.075212
     81 H34        -3.0180   10.3120    2.0970 hc        1 MOL      0.075212
     82 H35        -3.5650    8.7290    2.3740 hc        1 MOL      0.075212
     83 N9         -2.5730    5.2940    0.7420 n         1 MOL     -0.020073
     84 C26        -2.7980    3.9760    1.2940 c3        1 MOL     -0.143263
     85 C27        -2.2210    2.9280    0.4090 c         1 MOL      0.514845
     86 O15        -1.3250    3.1700   -0.3910 o         1 MOL     -0.469067
     87 C28        -2.1810    3.9660    2.7400 c3        1 MOL      0.059964
     88 C29        -0.6390    4.1760    2.7900 c3        1 MOL     -0.138774
     89 C30        -2.8070    5.0990    3.5960 c3        1 MOL     -0.181401
     90 C31         0.0040    3.6920    4.0540 c3        1 MOL     -0.091021
     91 H36        -1.6110    5.4710    0.4750 hn        1 MOL      0.092214
     92 H37        -3.8790    3.8450    1.3690 h1        1 MOL      0.101254
     93 H38        -2.5300    3.0480    3.2040 hc        1 MOL      0.040651
     94 H39        -0.3460    5.2090    2.5890 hc        1 MOL      0.095589
     95 H40        -0.1510    3.6590    1.9660 hc        1 MOL      0.095589
     96 H41        -2.8460    4.7960    4.6410 hc        1 MOL      0.039928
     97 H42        -2.3010    6.0600    3.6020 hc        1 MOL      0.039928
     98 H43        -3.8260    5.2890    3.2700 hc        1 MOL      0.039928
     99 H44        -0.3510    2.7360    4.4330 hc        1 MOL      0.030538
    100 H45         1.0990    3.6730    3.9530 hc        1 MOL      0.030538
    101 H46        -0.2770    4.2910    4.9100 hc        1 MOL      0.030538
    102 N10        -2.6830    1.6590    0.6140 n         1 MOL     -0.550492
    103 C32        -2.2910    0.5010   -0.2700 c3        1 MOL      0.123538
    104 C33        -3.4640   -0.4320   -0.4490 c         1 MOL      0.531147
    105 O16        -3.3210   -1.6460   -0.5300 o         1 MOL     -0.555287
    106 C34        -1.1180   -0.1880    0.4000 c3        1 MOL     -0.043710
    107 C35        -0.1960   -0.9730   -0.5760 c         1 MOL      0.670192
    108 O17         0.9260   -1.2600   -0.1770 o         1 MOL     -0.672577
    109 O18        -0.6630   -1.3850   -1.6530 o         1 MOL     -0.672577
    110 H47        -3.2450    1.4190    1.4200 hn        1 MOL      0.295109
    111 H48        -1.9890    0.8000   -1.2760 h1        1 MOL      0.045217
    112 H49        -1.4670   -0.8980    1.1460 hc        1 MOL      0.010353
    113 H50        -0.4820    0.5920    0.8150 hc        1 MOL      0.010353
    114 N11        -4.7050    0.0210   -0.4230 n         1 MOL     -0.449188
    115 C36        -5.8590   -0.8100   -0.7640 c3        1 MOL      0.156823
    116 C37        -5.9750   -2.0420    0.2240 c         1 MOL      0.305745
    117 O19        -6.0280   -1.8280    1.4250 o         1 MOL     -0.499343
    118 C38        -7.1610   -0.1020   -0.6090 c3        1 MOL     -0.272806
    119 C39        -8.4000   -1.0060   -0.9220 ca        1 MOL      0.010618
    120 C40        -8.6720   -1.4730   -2.2760 ca        1 MOL     -0.143912
    121 C41        -9.2080   -1.4060    0.1560 ca        1 MOL     -0.143912
    122 C42        -9.5910   -2.4700   -2.4710 ca        1 MOL     -0.102735
    123 C43       -10.2050   -2.3460   -0.0680 ca        1 MOL     -0.102735
    124 C44       -10.2730   -2.9700   -1.3590 ca        1 MOL     -0.166793
    125 H51        -4.8590    0.9720   -0.1120 hn        1 MOL      0.243147
    126 H52        -5.6950   -1.1290   -1.7980 h1        1 MOL      0.044126
    127 H53        -7.1970    0.8490   -1.1540 hc        1 MOL      0.114614
    128 H54        -7.2280    0.1420    0.4620 hc        1 MOL      0.114614
    129 H55        -8.1200   -1.1580   -3.1530 ha        1 MOL      0.120762
    130 H56        -8.9650   -0.9370    1.0960 ha        1 MOL      0.120762
    131 H57        -9.8220   -2.8950   -3.4350 ha        1 MOL      0.107299
    132 H58       -10.8770   -2.6120    0.7370 ha        1 MOL      0.107299
    133 H59       -10.9200   -3.8270   -1.4860 ha        1 MOL      0.104386
    134 N12        -5.8590   -3.2950   -0.2770 n         1 MOL      0.083182
    135 C45        -6.0770   -4.4920    0.4990 c3        1 MOL      0.193577
    136 C46        -4.9650   -4.6860    1.5530 c         1 MOL      0.198680
    137 O20        -5.2830   -4.9430    2.7140 o         1 MOL     -0.506694
    138 C47        -6.0960   -5.6900   -0.4570 c3        1 MOL      0.033900
    139 C48        -6.5470   -5.0680   -1.7740 c3        1 MOL     -0.163260
    140 C49        -6.0650   -3.6400   -1.6930 c3        1 MOL      0.072089
    141 H60        -7.0120   -4.4170    1.0370 h1        1 MOL      0.004206
    142 H61        -5.1160   -6.1150   -0.6560 hc        1 MOL      0.005306
    143 H62        -6.7670   -6.3910    0.0320 hc        1 MOL      0.005306
    144 H63        -6.1400   -5.7070   -2.5480 hc        1 MOL      0.036626
    145 H64        -7.6280   -5.0450   -1.8360 hc        1 MOL      0.036626
    146 H65        -5.0880   -3.5600   -2.1780 h1        1 MOL      0.003579
    147 H66        -6.6940   -2.9470   -2.2460 h1        1 MOL      0.003579
    148 N13        -3.7600   -4.2480    1.2310 n         1 MOL     -0.155228
    149 C50        -2.6030   -4.2620    2.1300 c3        1 MOL     -0.028263
    150 C51        -2.8190   -3.1730    3.2180 c         1 MOL      0.456562
    151 O21        -2.2820   -3.4550    4.2860 o         1 MOL     -0.575740
    152 C52        -1.3140   -3.9570    1.2920 c3        1 MOL     -0.057164
    153 C53        -0.9800   -5.0520    0.3420 c3        1 MOL     -0.144829
    154 C54         0.0260   -4.6290   -0.6980 c         1 MOL      0.769077
    155 O22        -0.3100   -4.5840   -1.8850 o         1 MOL     -0.774651
    156 O23         1.1790   -4.3460   -0.3660 o         1 MOL     -0.774651
    157 H67        -3.6580   -4.0580    0.2430 hn        1 MOL      0.194143
    158 H68        -2.4620   -5.1620    2.7280 h1        1 MOL      0.101338
    159 H69        -0.4790   -3.7450    1.9670 hc        1 MOL      0.068723
    160 H70        -1.4040   -3.0850    0.6520 hc        1 MOL      0.068723
    161 H71        -1.8800   -5.3630   -0.1800 hc        1 MOL      0.005503
    162 H72        -0.6210   -5.9850    0.7730 hc        1 MOL      0.005503
    163 N14        -3.5740   -2.1050    3.0080 n         1 MOL     -0.086297
    164 C55        -4.0780   -1.1500    4.0300 c3        1 MOL     -0.359142
    165 H73        -4.2700   -1.6830    4.9610 h1        1 MOL      0.128652
    166 H74        -3.3320   -0.3740    4.2030 h1        1 MOL      0.128652
    167 H75        -5.0030   -0.6940    3.6770 h1        1 MOL      0.128652
    168 H76        -4.0190   -2.0610    2.1030 hn        1 MOL      0.208899
    169 Ca1         1.5390   -2.6370   -2.3880 Ca        1 MOL      1.796171
    170 O24         2.7700   -2.1400   -4.7520 oh        1 MOL     -0.826124
    171 H77         2.2300   -1.8230   -5.4740 ho        1 MOL      0.400234
    172 H78         3.5680   -2.4690   -5.1740 ho        1 MOL      0.400234
    173 O25        -0.0720   -2.8160   -4.5260 oh        1 MOL     -0.826124
    174 H79         0.4630   -2.5220   -5.2530 ho        1 MOL      0.400234
    175 H80        -0.9560   -2.9170   -4.8870 ho        1 MOL      0.400234
    176 O26         2.6560   -4.9160   -3.3740 oh        1 MOL     -0.826124
    177 H81         2.7390   -5.2600   -4.2620 ho        1 MOL      0.400234
    178 H82         2.6790   -5.6910   -2.8180 ho        1 MOL      0.400234
@<TRIPOS>BOND
     1    1    2 1   
     2    1    4 1   
     3    1    5 1   
     4    1    6 1   
     5    2    3 2   
     6    2    7 1   
     7    7    8 1   
     8    7   15 1   
     9    8    9 1   
    10    8   11 1   
    11    8   16 1   
    12    9   10 2   
    13    9   19 1   
    14   11   12 1   
    15   11   17 1   
    16   11   18 1   
    17   12   13 1   
    18   12   14 1   
    19   19   20 1   
    20   19   24 1   
    21   20   21 1   
    22   20   23 1   
    23   20   25 1   
    24   21   22 2   
    25   21   29 1   
    26   23   26 1   
    27   23   27 1   
    28   23   28 1   
    29   29   30 1   
    30   29   37 1   
    31   30   31 1   
    32   30   33 1   
    33   30   38 1   
    34   31   32 2   
    35   31   41 1   
    36   33   34 1   
    37   33   39 1   
    38   33   40 1   
    39   34   35 1   
    40   34   36 1   
    41   41   42 1   
    42   41   45 1   
    43   42   43 1   
    44   42   46 1   
    45   42   47 1   
    46   43   44 2   
    47   43   48 1   
    48   48   49 1   
    49   48   56 1   
    50   49   50 1   
    51   49   52 1   
    52   49   57 1   
    53   50   51 2   
    54   50   62 1   
    55   52   53 1   
    56   52   58 1   
    57   52   59 1   
    58   53   54 1   
    59   53   55 2   
    60   54   60 1   
    61   54   61 1   
    62   62   63 1   
    63   62   66 1   
    64   63   64 1   
    65   63   67 1   
    66   63   68 1   
    67   64   65 2   
    68   64   69 1   
    69   69   70 1   
    70   69   76 1   
    71   70   71 1   
    72   70   73 1   
    73   70   77 1   
    74   71   72 2   
    75   71   83 1   
    76   73   74 1   
    77   73   75 1   
    78   73   78 1   
    79   74   80 1   
    80   74   81 1   
    81   74   82 1   
    82   75   79 1   
    83   83   84 1   
    84   83   91 1   
    85   84   85 1   
    86   84   87 1   
    87   84   92 1   
    88   85   86 2   
    89   85  102 1   
    90   87   88 1   
    91   87   89 1   
    92   87   93 1   
    93   88   90 1   
    94   88   94 1   
    95   88   95 1   
    96   89   96 1   
    97   89   97 1   
    98   89   98 1   
    99   90   99 1   
   100   90  100 1   
   101   90  101 1   
   102  102  103 1   
   103  102  110 1   
   104  103  104 1   
   105  103  106 1   
   106  103  111 1   
   107  104  105 2   
   108  104  114 1   
   109  106  107 1   
   110  106  112 1   
   111  106  113 1   
   112  107  108 1   
   113  107  109 1   
   114  114  115 1   
   115  114  125 1   
   116  115  116 1   
   117  115  118 1   
   118  115  126 1   
   119  116  117 2   
   120  116  134 1   
   121  118  119 1   
   122  118  127 1   
   123  118  128 1   
   124  119  120 ar  
   125  119  121 ar  
   126  120  122 ar  
   127  120  129 1   
   128  121  123 ar  
   129  121  130 1   
   130  122  124 ar  
   131  122  131 1   
   132  123  124 ar  
   133  123  132 1   
   134  124  133 1   
   135  134  135 1   
   136  134  140 1   
   137  135  136 1   
   138  135  138 1   
   139  135  141 1   
   140  136  137 2   
   141  136  148 1   
   142  138  139 1   
   143  138  142 1   
   144  138  143 1   
   145  139  140 1   
   146  139  144 1   
   147  139  145 1   
   148  140  146 1   
   149  140  147 1   
   150  148  149 1   
   151  148  157 1   
   152  149  150 1   
   153  149  152 1   
   154  149  158 1   
   155  150  151 2   
   156  150  163 1   
   157  152  153 1   
   158  152  159 1   
   159  152  160 1   
   160  153  154 1   
   161  153  161 1   
   162  153  162 1   
   163  154  155 1   
   164  154  156 1   
   165  163  164 1   
   166  163  168 1   
   167  164  165 1   
   168  164  166 1   
   169  164  167 1   
   170  170  171 1   
   171  170  172 1   
   172  173  174 1   
   173  173  175 1   
   174  176  177 1   
   175  176  178 1   
@<TRIPOS>SUBSTRUCTURE
     1 MOL         1 TEMP              0 ****  ****    0 ROOT
