@<TRIPOS>MOLECULE
MOL
  181   177     1     0     0
SMALL
resp


@<TRIPOS>ATOM
      1 C1          2.3250   -1.4110    5.2580 c3        1 MOL     -0.315616
      2 C2          3.2620   -0.7570    4.2330 c         1 MOL      0.611258
      3 O1          3.0090    0.3310    3.6650 o         1 MOL     -0.573486
      4 H1          1.4280   -1.7700    4.7530 hc        1 MOL      0.074620
      5 H2          2.8330   -2.2510    5.7330 hc        1 MOL      0.074620
      6 H3          2.0450   -0.6790    6.0160 hc        1 MOL      0.074620
      7 N1          4.5340   -1.1470    4.2390 n         1 MOL     -0.300258
      8 C3          5.5560   -0.6380    3.2810 c3        1 MOL     -0.153946
      9 C4          5.6970   -1.5470    2.0760 c         1 MOL      0.600442
     10 O2          6.4410   -1.2200    1.1570 o         1 MOL     -0.541222
     11 C5          6.8630   -0.4940    4.0470 c3        1 MOL     -0.257853
     12 C6          6.7690    0.4490    5.2050 c         1 MOL      0.749815
     13 O3          7.1500    0.0820    6.3330 o         1 MOL     -0.730682
     14 O4          6.4810    1.6430    4.9790 o         1 MOL     -0.730682
     15 H4          4.7930   -1.8390    4.9280 hn        1 MOL      0.217122
     16 H5          5.3360    0.3740    2.9440 h1        1 MOL      0.161402
     17 H6          7.6060   -0.1970    3.3240 hc        1 MOL      0.062631
     18 H7          7.2300   -1.4830    4.3260 hc        1 MOL      0.062631
     19 N2          4.9520   -2.6930    2.0760 n         1 MOL     -0.377152
     20 C7          5.0340   -3.6700    1.0200 c3        1 MOL      0.161490
     21 C8          4.6640   -3.0350   -0.3480 c         1 MOL      0.254046
     22 O5          3.5340   -2.5750   -0.6220 o         1 MOL     -0.561133
     23 C9          6.3710   -4.4740    1.0930 c3        1 MOL     -0.660554
     24 H8          4.2700   -2.8140    2.8170 hn        1 MOL      0.250722
     25 H9          4.1490   -4.2870    1.1960 h1        1 MOL      0.090008
     26 H10         6.4540   -5.2260    0.2970 hc        1 MOL      0.183192
     27 H11         7.1470   -3.7220    0.9960 hc        1 MOL      0.183192
     28 H12         6.4080   -4.8950    2.0950 hc        1 MOL      0.183192
     29 N3          5.6720   -2.8840   -1.2080 n         1 MOL     -0.210374
     30 C10         5.5540   -2.1390   -2.5040 c3        1 MOL     -0.024484
     31 C11         5.7450   -0.6010   -2.3210 c         1 MOL      0.556488
     32 O6          6.1580    0.1430   -3.1600 o         1 MOL     -0.565076
     33 C12         6.5370   -2.7800   -3.5740 c3        1 MOL     -0.332967
     34 C13         8.0610   -2.7010   -3.1280 c         1 MOL      0.807288
     35 O7          8.4850   -2.6740   -1.9490 o         1 MOL     -0.714385
     36 O8          8.8750   -2.6700   -4.0420 o         1 MOL     -0.714385
     37 H13         6.6190   -3.1520   -0.9800 hn        1 MOL      0.204481
     38 H14         4.5090   -2.2350   -2.8060 h1        1 MOL      0.148653
     39 H15         6.3890   -2.3190   -4.5440 hc        1 MOL      0.039829
     40 H16         6.2680   -3.8320   -3.6370 hc        1 MOL      0.039829
     41 N4          5.3330   -0.0730   -1.1970 n         1 MOL     -0.091175
     42 C14         5.6690    1.3050   -0.7510 c3        1 MOL     -0.291902
     43 C15         4.6790    2.3970   -1.2930 c         1 MOL      0.704954
     44 O9          5.1750    3.4540   -1.7130 o         1 MOL     -0.591062
     45 H17         4.8850   -0.6040   -0.4710 hn        1 MOL      0.218828
     46 H18         6.6800    1.4300   -1.1260 h1        1 MOL      0.135344
     47 H19         5.5640    1.3970    0.3290 h1        1 MOL      0.135344
     48 N5          3.4220    2.0560   -1.4600 n         1 MOL     -0.422921
     49 C16         2.4870    2.7100   -2.3760 c3        1 MOL     -0.161586
     50 C17         1.8850    3.9890   -1.7760 c         1 MOL      0.685416
     51 O10         1.6580    4.1330   -0.5430 o         1 MOL     -0.507583
     52 C18         1.3510    1.7680   -2.7640 c3        1 MOL     -0.460001
     53 C19         1.8890    0.5390   -3.5080 c         1 MOL      0.969799
     54 N6          1.8760    0.6570   -4.7790 n         1 MOL     -0.823988
     55 O11         2.2190   -0.4890   -2.9600 o         1 MOL     -0.796360
     56 H20         3.0530    1.2260   -1.0410 hn        1 MOL      0.271044
     57 H21         3.0820    2.9800   -3.2480 h1        1 MOL      0.090400
     58 H22         0.5870    2.2590   -3.3730 hc        1 MOL      0.161866
     59 H23         0.9430    1.3830   -1.8250 hc        1 MOL      0.161866
     60 H24         1.5540    1.5060   -5.2140 hn        1 MOL      0.367542
     61 H25         2.3280   -0.0680   -5.3040 hn        1 MOL      0.367542
     62 N7          1.7610    4.9610   -2.7290 n         1 MOL     -0.408565
     63 C20         1.5410    6.3680   -2.4470 c3        1 MOL     -0.315669
     64 C21         0.0660    6.6350   -2.0910 c         1 MOL      0.651319
     65 O12        -0.8450    6.0100   -2.6110 o         1 MOL     -0.516823
     66 H26         1.8790    4.7390   -3.7090 hn        1 MOL      0.308154
     67 H27         1.9130    6.9340   -3.3030 h1        1 MOL      0.148825
     68 H28         2.0650    6.6190   -1.5200 h1        1 MOL      0.148825
     69 N8         -0.2540    7.4930   -1.0620 n         1 MOL     -0.529424
     70 C22        -1.5430    7.9300   -0.6240 c3        1 MOL     -0.163660
     71 C23        -2.4710    6.9250    0.1450 c         1 MOL      0.431471
     72 O13        -3.5690    7.2450    0.5980 o         1 MOL     -0.543706
     73 C24        -1.4660    9.2500    0.1720 c3        1 MOL      0.506302
     74 C25        -0.7960    9.1570    1.5380 c3        1 MOL     -0.219274
     75 O14        -0.9440   10.2010   -0.7060 oh        1 MOL     -0.668047
     76 H29         0.4850    8.1090   -0.7500 hn        1 MOL      0.256492
     77 H30        -2.0600    8.2580   -1.5230 h1        1 MOL      0.135649
     78 H31        -2.4990    9.4860    0.4140 h1        1 MOL      0.004548
     79 H32         0.0080   10.2200   -0.6500 ho        1 MOL      0.401518
     80 H33        -1.5120    8.8690    2.3020 hc        1 MOL      0.038726
     81 H34         0.0740    8.5070    1.5540 hc        1 MOL      0.038726
     82 H35        -0.3940   10.1690    1.6530 hc        1 MOL      0.038726
     83 N9         -1.9410    5.7050    0.2400 n         1 MOL     -0.155991
     84 C26        -2.5240    4.6710    1.0640 c3        1 MOL     -0.118987
     85 C27        -2.3150    3.3680    0.2320 c         1 MOL      0.574227
     86 O15        -1.9740    3.4640   -0.9540 o         1 MOL     -0.469209
     87 C28        -1.7880    4.6820    2.4470 c3        1 MOL      0.150367
     88 C29        -0.3450    4.2520    2.5190 c3        1 MOL     -0.144429
     89 C30        -2.0890    6.0450    3.1200 c3        1 MOL     -0.202818
     90 C31         0.0100    3.6300    3.8500 c3        1 MOL     -0.297429
     91 H36        -1.1620    5.4160   -0.3290 hn        1 MOL      0.157308
     92 H37        -3.5950    4.8230    1.2120 h1        1 MOL      0.108788
     93 H38        -2.4050    4.0220    3.0610 hc        1 MOL     -0.018433
     94 H39         0.2980    5.0680    2.1860 hc        1 MOL      0.122116
     95 H40        -0.2890    3.5880    1.6550 hc        1 MOL      0.122116
     96 H41        -1.3550    6.8050    2.8410 hc        1 MOL      0.052059
     97 H42        -3.1390    6.2050    2.8410 hc        1 MOL      0.052059
     98 H43        -2.1020    6.0260    4.2060 hc        1 MOL      0.052059
     99 H44         1.0600    3.4180    3.6650 hc        1 MOL      0.095764
    100 H45        -0.1340    4.3640    4.6360 hc        1 MOL      0.095764
    101 H46        -0.5460    2.7050    4.0430 hc        1 MOL      0.095764
    102 N10        -2.5780    2.1430    0.7270 n         1 MOL     -0.693184
    103 C32        -2.2280    0.8030    0.0830 c3        1 MOL      0.291771
    104 C33        -3.4020   -0.1350   -0.2250 c         1 MOL      0.550438
    105 O16        -3.2620   -1.3480   -0.0470 o         1 MOL     -0.569644
    106 C34        -1.0230    0.1430    0.8030 c3        1 MOL      0.095402
    107 C35        -0.1660   -0.7850   -0.1040 c         1 MOL      0.727345
    108 O17         0.9760   -1.2440    0.2540 o         1 MOL     -0.774244
    109 O18        -0.5060   -1.1430   -1.2480 o         1 MOL     -0.774244
    110 H47        -2.9270    2.0230    1.6700 hn        1 MOL      0.297059
    111 H48        -1.7480    1.0420   -0.8720 h1        1 MOL     -0.044122
    112 H49        -1.3760   -0.4740    1.6330 hc        1 MOL     -0.027000
    113 H50        -0.3550    0.9410    1.1430 hc        1 MOL     -0.027000
    114 N11        -4.5320    0.3740   -0.7830 n         1 MOL     -0.525883
    115 C36        -5.6710   -0.4520   -1.1620 c3        1 MOL      0.211477
    116 C37        -6.1710   -1.3850    0.0250 c         1 MOL      0.396298
    117 O19        -6.4000   -0.8680    1.1340 o         1 MOL     -0.507204
    118 C38        -6.8480    0.3480   -1.5430 c3        1 MOL     -0.226132
    119 C39        -8.0340   -0.4840   -1.9650 ca        1 MOL      0.006457
    120 C40        -8.2130   -0.9370   -3.2890 ca        1 MOL     -0.084357
    121 C41        -8.9670   -0.8290   -0.9830 ca        1 MOL     -0.084357
    122 C42        -9.2030   -1.8420   -3.6020 ca        1 MOL     -0.153494
    123 C43       -10.0260   -1.7040   -1.2900 ca        1 MOL     -0.153494
    124 C44       -10.0990   -2.2010   -2.5830 ca        1 MOL     -0.095918
    125 H51        -4.5910    1.3840   -0.7960 hn        1 MOL      0.294249
    126 H52        -5.4070   -1.0350   -2.0420 h1        1 MOL      0.039275
    127 H53        -6.4960    0.9950   -2.3400 hc        1 MOL      0.092654
    128 H54        -7.2010    1.0600   -0.7990 hc        1 MOL      0.092654
    129 H55        -7.5530   -0.6550   -4.0970 ha        1 MOL      0.094669
    130 H56        -8.7740   -0.4650    0.0130 ha        1 MOL      0.094669
    131 H57        -9.3090   -2.2650   -4.5960 ha        1 MOL      0.118443
    132 H58       -10.5950   -2.1160   -0.4700 ha        1 MOL      0.118443
    133 H59       -10.8790   -2.9340   -2.7620 ha        1 MOL      0.089153
    134 N12        -6.3100   -2.7200   -0.2310 n         1 MOL      0.105121
    135 C45        -6.8050   -3.7330    0.7390 c3        1 MOL     -0.263032
    136 C46        -5.8540   -4.0590    1.9510 c         1 MOL      0.465595
    137 O20        -6.2790   -4.5500    2.9910 o         1 MOL     -0.487070
    138 C47        -7.1710   -4.9840   -0.1390 c3        1 MOL     -0.119813
    139 C48        -6.0360   -4.9460   -1.1460 c3        1 MOL     -0.012428
    140 C49        -5.9210   -3.4180   -1.4550 c3        1 MOL      0.027222
    141 H60        -7.6980   -3.3320    1.2170 h1        1 MOL      0.118936
    142 H61        -7.1070   -5.9250    0.4060 hc        1 MOL      0.077920
    143 H62        -8.0510   -4.8710   -0.7670 hc        1 MOL      0.077920
    144 H63        -5.0410   -5.2840   -0.8530 hc        1 MOL      0.012077
    145 H64        -6.4750   -5.4670   -2.0030 hc        1 MOL      0.012077
    146 H65        -4.8770   -3.1680   -1.6640 h1        1 MOL     -0.004486
    147 H66        -6.4380   -3.1390   -2.3820 h1        1 MOL     -0.004486
    148 N13        -4.5170   -3.7320    1.7850 n         1 MOL     -0.144687
    149 C50        -3.5120   -3.6940    2.9000 c3        1 MOL     -0.568436
    150 C51        -3.7480   -2.5510    3.8990 c         1 MOL      0.500932
    151 O21        -3.4830   -2.5800    5.1230 o         1 MOL     -0.536921
    152 C52        -2.0810   -3.6140    2.3100 c3        1 MOL      0.118633
    153 C53        -1.8000   -4.7690    1.3600 c3        1 MOL     -0.098139
    154 C54        -0.3620   -4.6820    0.7990 c         1 MOL      0.662860
    155 O22         0.6030   -5.0920    1.4740 o         1 MOL     -0.702066
    156 O23        -0.1880   -4.0590   -0.2640 o         1 MOL     -0.702066
    157 H67        -4.1670   -3.3290    0.9300 hn        1 MOL      0.327529
    158 H68        -3.5250   -4.6770    3.3780 h1        1 MOL      0.236705
    159 H69        -1.3300   -3.7690    3.0850 hc        1 MOL      0.073580
    160 H70        -1.9440   -2.7120    1.7290 hc        1 MOL      0.073580
    161 H71        -2.5870   -4.7920    0.6100 hc        1 MOL     -0.016291
    162 H72        -1.8060   -5.7180    1.8920 hc        1 MOL     -0.016291
    163 N14        -4.4710   -1.4920    3.4800 n         1 MOL     -0.016292
    164 C55        -4.7860   -0.3100    4.2850 c3        1 MOL     -0.316191
    165 H73        -5.7050   -0.4870    4.8430 h1        1 MOL      0.114090
    166 H74        -3.9710   -0.1150    4.9810 h1        1 MOL      0.114090
    167 H75        -4.9200    0.5500    3.6290 h1        1 MOL      0.114090
    168 H76        -4.8340   -1.4710    2.5420 hn        1 MOL      0.064669
    169 Ca1         1.3580   -2.8920   -1.9150 Ca        1 MOL      1.838886
    170 O24         2.2230   -5.2870   -0.5760 oh        1 MOL     -0.849637
    171 H77         1.5280   -5.2630    0.0820 ho        1 MOL      0.404333
    172 H78         2.6540   -6.1330   -0.4350 ho        1 MOL      0.404333
    173 O25         2.8910   -3.8100   -3.8970 oh        1 MOL     -0.849637
    174 H79         2.8230   -4.7310   -4.1790 ho        1 MOL      0.404333
    175 H80         3.3710   -3.3820   -4.6140 ho        1 MOL      0.404333
    176 O26         0.0100   -5.0660   -2.7800 oh        1 MOL     -0.849637
    177 H81        -0.1230   -5.3200   -3.6970 ho        1 MOL      0.404333
    178 H82        -0.5330   -5.6820   -2.2870 ho        1 MOL      0.404333
    179 O27         0.2820   -2.3460   -4.2890 oh        1 MOL     -0.849637
    180 H83         0.1930   -3.0510   -4.9330 ho        1 MOL      0.404333
    181 H84         0.1530   -1.5430   -4.7910 ho        1 MOL      0.404333
@<TRIPOS>BOND
     1    1    2 1   
     2    1    4 1   
     3    1    5 1   
     4    1    6 1   
     5    2    3 2   
     6    2    7 1   
     7    7    8 1   
     8    7   15 1   
     9    8    9 1   
    10    8   11 1   
    11    8   16 1   
    12    9   10 2   
    13    9   19 1   
    14   11   12 1   
    15   11   17 1   
    16   11   18 1   
    17   12   13 1   
    18   12   14 1   
    19   19   20 1   
    20   19   24 1   
    21   20   21 1   
    22   20   23 1   
    23   20   25 1   
    24   21   22 2   
    25   21   29 1   
    26   23   26 1   
    27   23   27 1   
    28   23   28 1   
    29   29   30 1   
    30   29   37 1   
    31   30   31 1   
    32   30   33 1   
    33   30   38 1   
    34   31   32 2   
    35   31   41 1   
    36   33   34 1   
    37   33   39 1   
    38   33   40 1   
    39   34   35 1   
    40   34   36 1   
    41   41   42 1   
    42   41   45 1   
    43   42   43 1   
    44   42   46 1   
    45   42   47 1   
    46   43   44 2   
    47   43   48 1   
    48   48   49 1   
    49   48   56 1   
    50   49   50 1   
    51   49   52 1   
    52   49   57 1   
    53   50   51 2   
    54   50   62 1   
    55   52   53 1   
    56   52   58 1   
    57   52   59 1   
    58   53   54 1   
    59   53   55 2   
    60   54   60 1   
    61   54   61 1   
    62   62   63 1   
    63   62   66 1   
    64   63   64 1   
    65   63   67 1   
    66   63   68 1   
    67   64   65 2   
    68   64   69 1   
    69   69   70 1   
    70   69   76 1   
    71   70   71 1   
    72   70   73 1   
    73   70   77 1   
    74   71   72 2   
    75   71   83 1   
    76   73   74 1   
    77   73   75 1   
    78   73   78 1   
    79   74   80 1   
    80   74   81 1   
    81   74   82 1   
    82   75   79 1   
    83   83   84 1   
    84   83   91 1   
    85   84   85 1   
    86   84   87 1   
    87   84   92 1   
    88   85   86 2   
    89   85  102 1   
    90   87   88 1   
    91   87   89 1   
    92   87   93 1   
    93   88   90 1   
    94   88   94 1   
    95   88   95 1   
    96   89   96 1   
    97   89   97 1   
    98   89   98 1   
    99   90   99 1   
   100   90  100 1   
   101   90  101 1   
   102  102  103 1   
   103  102  110 1   
   104  103  104 1   
   105  103  106 1   
   106  103  111 1   
   107  104  105 2   
   108  104  114 1   
   109  106  107 1   
   110  106  112 1   
   111  106  113 1   
   112  107  108 1   
   113  107  109 1   
   114  114  115 1   
   115  114  125 1   
   116  115  116 1   
   117  115  118 1   
   118  115  126 1   
   119  116  117 2   
   120  116  134 1   
   121  118  119 1   
   122  118  127 1   
   123  118  128 1   
   124  119  120 ar  
   125  119  121 ar  
   126  120  122 ar  
   127  120  129 1   
   128  121  123 ar  
   129  121  130 1   
   130  122  124 ar  
   131  122  131 1   
   132  123  124 ar  
   133  123  132 1   
   134  124  133 1   
   135  134  135 1   
   136  134  140 1   
   137  135  136 1   
   138  135  138 1   
   139  135  141 1   
   140  136  137 2   
   141  136  148 1   
   142  138  139 1   
   143  138  142 1   
   144  138  143 1   
   145  139  140 1   
   146  139  144 1   
   147  139  145 1   
   148  140  146 1   
   149  140  147 1   
   150  148  149 1   
   151  148  157 1   
   152  149  150 1   
   153  149  152 1   
   154  149  158 1   
   155  150  151 2   
   156  150  163 1   
   157  152  153 1   
   158  152  159 1   
   159  152  160 1   
   160  153  154 1   
   161  153  161 1   
   162  153  162 1   
   163  154  155 1   
   164  154  156 1   
   165  163  164 1   
   166  163  168 1   
   167  164  165 1   
   168  164  166 1   
   169  164  167 1   
   170  170  171 1   
   171  170  172 1   
   172  173  174 1   
   173  173  175 1   
   174  176  177 1   
   175  176  178 1   
   176  179  180 1   
   177  179  181 1   
@<TRIPOS>SUBSTRUCTURE
     1 MOL         1 TEMP              0 ****  ****    0 ROOT
