@<TRIPOS>MOLECULE
MOL
  195   189     1     0     0
SMALL
resp


@<TRIPOS>ATOM
      1 C1         -3.5500    7.5440    0.5680 c3        1 MOL     -0.327020
      2 C2         -3.2760    6.0510    0.8630 c         1 MOL      0.684869
      3 O1         -2.7930    5.6230    1.9100 o         1 MOL     -0.609004
      4 H1         -2.8560    8.1600    1.1390 hc        1 MOL      0.087336
      5 H2         -3.4120    7.7360   -0.4960 hc        1 MOL      0.087336
      6 H3         -4.5730    7.7900    0.8530 hc        1 MOL      0.087336
      7 N1         -3.4930    5.2230   -0.1360 n         1 MOL     -0.448946
      8 C3         -3.4650    3.7400   -0.0950 c3        1 MOL     -0.051619
      9 C4         -2.1140    3.1660   -0.4300 c         1 MOL      0.402452
     10 O2         -1.9750    2.0190   -0.6950 o         1 MOL     -0.260037
     11 C5         -4.5770    3.1730   -0.9870 c3        1 MOL     -0.164119
     12 C6         -4.7500    3.6250   -2.4420 c         1 MOL      0.737434
     13 O3         -4.6150    4.8140   -2.7580 o         1 MOL     -0.706415
     14 O4         -5.0920    2.7850   -3.2950 o         1 MOL     -0.706415
     15 H4         -3.7490    5.5890   -1.0390 hn        1 MOL      0.236231
     16 H5         -3.6110    3.4330    0.9460 h1        1 MOL      0.151468
     17 H6         -5.5150    3.3790   -0.4770 hc        1 MOL      0.009350
     18 H7         -4.4660    2.0880   -0.9930 hc        1 MOL      0.009350
     19 N2         -1.0360    3.9660   -0.2730 n         1 MOL     -0.390311
     20 C7          0.3580    3.5580   -0.5400 c3        1 MOL      0.006161
     21 C8          1.0520    3.2060    0.7610 c         1 MOL      0.523978
     22 O5          0.8010    3.8040    1.7790 o         1 MOL     -0.504267
     23 C9          1.1370    4.5690   -1.3770 c3        1 MOL     -0.410407
     24 C10         0.6120    4.9190   -2.8340 c3        1 MOL      0.126264
     25 C11         1.5900    5.2970   -3.9130 c3        1 MOL     -0.117964
     26 C12         2.6700    4.2090   -4.2930 c3        1 MOL      0.130233
     27 N3          2.2300    3.3820   -5.4290 n4        1 MOL     -0.413982
     28 H8         -1.1430    4.9350    0.0160 hn        1 MOL      0.285181
     29 H9          0.3160    2.6450   -1.1370 h1        1 MOL      0.247074
     30 H10         2.1670    4.2470   -1.5150 hc        1 MOL      0.147041
     31 H11         1.1250    5.4840   -0.7890 hc        1 MOL      0.147041
     32 H12        -0.0220    5.7940   -2.6880 hc        1 MOL      0.013004
     33 H13        -0.0430    4.0810   -3.0900 hc        1 MOL      0.013004
     34 H14         2.3310    6.0240   -3.5820 hc        1 MOL      0.049779
     35 H15         1.0650    5.5840   -4.8240 hc        1 MOL      0.049779
     36 H16         2.8620    3.5610   -3.4370 hx        1 MOL      0.067097
     37 H17         3.5650    4.7210   -4.6210 hx        1 MOL      0.067097
     38 H18         1.3490    2.9260   -5.2510 hn        1 MOL      0.330707
     39 H19         2.1950    3.8710   -6.3130 hn        1 MOL      0.330707
     40 H20         2.9720    2.7370   -5.6830 hn        1 MOL      0.330707
     41 N4          1.8100    2.0800    0.8860 n         1 MOL     -0.419837
     42 C13         2.2000    1.0150   -0.0290 c3        1 MOL      0.033820
     43 C14         2.8770    1.5760   -1.2720 c         1 MOL      0.261682
     44 O6          2.2410    1.7680   -2.3080 o         1 MOL     -0.513289
     45 C15         1.0490    0.0550   -0.3180 c3        1 MOL     -0.141866
     46 C16         0.4160   -0.5080    0.8920 c         1 MOL      0.691509
     47 O7         -0.6460    0.0040    1.3840 o         1 MOL     -0.738743
     48 O8          1.1020   -1.2630    1.6260 o         1 MOL     -0.738743
     49 H21         2.2600    2.0350    1.7900 hn        1 MOL      0.263721
     50 H22         2.9390    0.3840    0.4800 h1        1 MOL      0.046230
     51 H23         1.4230   -0.7870   -0.9120 hc        1 MOL      0.081641
     52 H24         0.2670    0.5610   -0.9030 hc        1 MOL      0.081641
     53 N5          4.1350    1.9910   -1.2480 n         1 MOL     -0.120743
     54 C17         5.1380    2.0720   -0.1350 c3        1 MOL     -0.076345
     55 C18         6.2410    3.0790   -0.4810 c         1 MOL      0.528573
     56 O9          6.1040    3.8280   -1.4460 o         1 MOL     -0.552623
     57 H25         4.3750    2.4690   -2.0960 hn        1 MOL      0.179416
     58 H26         5.5800    1.0910    0.0490 h1        1 MOL      0.068502
     59 H27         4.6440    2.5470    0.7100 h1        1 MOL      0.068502
     60 N6          7.4050    3.0820    0.1810 n         1 MOL     -0.414766
     61 C19         7.9450    2.1090    1.1190 c3        1 MOL      0.207876
     62 C20         8.1360    0.6820    0.6190 c         1 MOL      0.529818
     63 O10         8.1660    0.4800   -0.5850 o         1 MOL     -0.506710
     64 C21         9.2200    2.6460    1.6600 c3        1 MOL     -0.282443
     65 C22         9.1450    4.1110    2.1180 c         1 MOL      0.695840
     66 O11         9.1780    5.1140    1.3200 o         1 MOL     -0.670562
     67 O12         8.9700    4.2610    3.3560 o         1 MOL     -0.670562
     68 H28         8.1400    3.6130   -0.2540 hn        1 MOL      0.284453
     69 H29         7.2750    2.0030    1.9690 h1        1 MOL     -0.023696
     70 H30         9.9320    2.6060    0.8310 hc        1 MOL      0.044913
     71 H31         9.5640    2.0710    2.5240 hc        1 MOL      0.044913
     72 N7          8.4830   -0.2370    1.4930 n         1 MOL     -0.406948
     73 C23         8.7870   -1.6500    1.1340 c3        1 MOL     -0.240707
     74 C24         7.4730   -2.4400    0.7640 c         1 MOL      0.505186
     75 O13         7.5830   -3.4620    0.1770 o         1 MOL     -0.543602
     76 H32         8.5780   -0.0020    2.4710 hn        1 MOL      0.294256
     77 H33         9.3070   -2.1580    1.9470 h1        1 MOL      0.157769
     78 H34         9.4230   -1.6290    0.2420 h1        1 MOL      0.157769
     79 N8          6.3220   -1.9680    1.1040 n         1 MOL     -0.270676
     80 C25         5.0810   -2.7000    0.8910 c3        1 MOL      0.069134
     81 C26         4.4120   -2.3020   -0.4600 c         1 MOL      0.596678
     82 O14         4.6780   -1.1320   -0.8870 o         1 MOL     -0.521812
     83 C27         4.1300   -2.4280    2.0350 c3        1 MOL      0.362017
     84 C28         4.5700   -2.9510    3.4560 c3        1 MOL     -0.127914
     85 O15         2.8860   -3.0610    1.9020 oh        1 MOL     -0.621280
     86 H35         6.3590   -1.0840    1.6000 hn        1 MOL      0.141445
     87 H36         5.3690   -3.7490    0.8790 h1        1 MOL      0.065624
     88 H37         4.0200   -1.3450    2.1350 h1        1 MOL      0.032009
     89 H38         2.1950   -2.3940    1.9190 ho        1 MOL      0.257506
     90 H39         4.1610   -2.2280    4.1690 hc        1 MOL      0.015440
     91 H40         4.1850   -3.9520    3.6400 hc        1 MOL      0.015440
     92 H41         5.6540   -2.8670    3.5840 hc        1 MOL      0.015440
     93 N9          3.6570   -3.1250   -1.1290 n         1 MOL     -0.400204
     94 C29         3.0520   -2.9210   -2.4850 c3        1 MOL     -0.544047
     95 C30         1.5920   -3.3130   -2.5700 c         1 MOL      0.485264
     96 O16         0.9080   -3.0370   -3.5670 o         1 MOL     -0.548435
     97 C31         3.8990   -3.6850   -3.5120 c3        1 MOL      0.367082
     98 C32         4.3100   -5.0420   -2.9890 c3        1 MOL      0.209371
     99 C33         5.1620   -2.8430   -4.0030 c3        1 MOL     -0.470757
    100 C34         4.8680   -5.9570   -4.0910 c3        1 MOL     -0.363986
    101 H42         3.5280   -4.0520   -0.7450 hn        1 MOL      0.221833
    102 H43         3.0870   -1.8680   -2.7830 h1        1 MOL      0.273432
    103 H44         3.2680   -3.8490   -4.3850 hc        1 MOL     -0.013044
    104 H45         3.4120   -5.5630   -2.6750 hc        1 MOL     -0.020881
    105 H46         5.0190   -4.9770   -2.1620 hc        1 MOL     -0.020881
    106 H47         4.8800   -1.7920   -4.0580 hc        1 MOL      0.126174
    107 H48         6.0070   -3.0180   -3.3430 hc        1 MOL      0.126174
    108 H49         5.3790   -3.3060   -4.9570 hc        1 MOL      0.126174
    109 H50         5.0840   -6.9350   -3.6790 hc        1 MOL      0.080165
    110 H51         4.1190   -6.0290   -4.8720 hc        1 MOL      0.080165
    111 H52         5.8080   -5.5490   -4.4490 hc        1 MOL      0.080165
    112 N10         1.0770   -3.9260   -1.5760 n         1 MOL     -0.092960
    113 C35        -0.3310   -4.3770   -1.3890 c3        1 MOL     -0.238007
    114 C36        -1.5480   -3.3560   -1.1940 c         1 MOL      0.728554
    115 O17        -2.2800   -3.5140   -0.2340 o         1 MOL     -0.596499
    116 C37        -0.3730   -5.5670   -0.4050 c3        1 MOL      0.313370
    117 C38         0.1220   -5.1510    0.9760 c3        1 MOL     -0.353998
    118 O18         0.6290   -6.5850   -0.7900 oh        1 MOL     -0.625667
    119 H53         1.6980   -4.0140   -0.7840 hn        1 MOL      0.245053
    120 H54        -0.4890   -4.9360   -2.3120 h1        1 MOL      0.077296
    121 H55        -1.3540   -6.0330   -0.4070 h1        1 MOL      0.041728
    122 H56         0.3980   -6.9540   -1.6530 ho        1 MOL      0.388667
    123 H57        -0.3200   -4.2130    1.3170 hc        1 MOL      0.104316
    124 H58        -0.1150   -5.9990    1.6320 hc        1 MOL      0.104316
    125 H59         1.1940   -4.9450    0.9820 hc        1 MOL      0.104316
    126 N11        -1.5600   -2.3190   -2.0040 n         1 MOL     -0.592296
    127 C39        -2.5380   -1.2220   -1.8080 c3        1 MOL     -0.033137
    128 C40        -3.9770   -1.6850   -1.7590 c         1 MOL      0.702022
    129 O19        -4.4240   -2.4500   -2.5740 o         1 MOL     -0.586164
    130 C41        -2.3730   -0.1230   -2.9140 c3        1 MOL      0.553375
    131 C42        -2.5480   -0.7030   -4.3550 c3        1 MOL     -0.736410
    132 O20        -1.1290    0.4300   -2.8010 oh        1 MOL     -0.529959
    133 H60        -0.9140   -2.2180   -2.7750 hn        1 MOL      0.320980
    134 H61        -2.2670   -0.5740   -0.9710 h1        1 MOL      0.105810
    135 H62        -3.1180    0.6550   -2.7760 h1        1 MOL     -0.033712
    136 H63        -1.0490    0.9390   -1.9910 ho        1 MOL      0.158680
    137 H64        -1.6880   -1.2890   -4.6610 hc        1 MOL      0.189787
    138 H65        -3.5190   -1.1960   -4.4240 hc        1 MOL      0.189787
    139 H66        -2.6460    0.1170   -5.0760 hc        1 MOL      0.189787
    140 N12        -4.7340   -1.1500   -0.7730 n         1 MOL     -0.492965
    141 C43        -6.1420   -1.3380   -0.6040 c3        1 MOL      0.005191
    142 C44        -6.7270   -1.0900    0.7960 c         1 MOL      0.626752
    143 O21        -7.7390   -1.6470    1.0350 o         1 MOL     -0.582905
    144 C45        -6.7860   -0.3080   -1.6340 c3        1 MOL     -0.517462
    145 C46        -8.1890   -0.5480   -2.2800 c3        1 MOL      0.296359
    146 C47        -8.2310   -1.8710   -3.0750 c3        1 MOL     -0.093321
    147 C48        -9.4840   -2.0030   -4.0050 c3        1 MOL      0.083570
    148 N13        -9.6260   -3.3440   -4.6160 n4        1 MOL     -0.380734
    149 H67        -4.2420   -0.5780   -0.1040 hn        1 MOL      0.202747
    150 H68        -6.5350   -2.3090   -0.8910 h1        1 MOL      0.047487
    151 H69        -6.1070   -0.2410   -2.4720 hc        1 MOL      0.170606
    152 H70        -6.9280    0.6090   -1.0670 hc        1 MOL      0.170606
    153 H71        -8.4590    0.1970   -3.0320 hc        1 MOL     -0.037972
    154 H72        -8.9520   -0.5950   -1.5030 hc        1 MOL     -0.037972
    155 H73        -8.3660   -2.6250   -2.2990 hc        1 MOL      0.077631
    156 H74        -7.2930   -2.0770   -3.5850 hc        1 MOL      0.077631
    157 H75        -9.4430   -1.3110   -4.8440 hx        1 MOL      0.060673
    158 H76       -10.4520   -1.8510   -3.5300 hx        1 MOL      0.060673
    159 H77        -9.6560   -4.0420   -3.8880 hn        1 MOL      0.306737
    160 H78       -10.5210   -3.3530   -5.0790 hn        1 MOL      0.306737
    161 H79        -8.8980   -3.5670   -5.2790 hn        1 MOL      0.306737
    162 N14        -6.0820   -0.3080    1.6510 n         1 MOL     -0.255955
    163 C49        -6.5690    0.0570    2.9830 c3        1 MOL     -0.440946
    164 C50        -7.2170    1.4430    2.7770 c         1 MOL      0.529218
    165 O22        -6.6830    2.3230    2.1530 o         1 MOL     -0.482379
    166 C51        -5.4350   -0.0430    4.0380 c3        1 MOL      0.347485
    167 C52        -4.9390   -1.5090    4.0840 c3        1 MOL      0.090528
    168 C53        -3.7760   -1.6340    5.0600 c         1 MOL      0.520010
    169 O23        -2.6840   -1.0670    4.8820 o         1 MOL     -0.687323
    170 O24        -3.9750   -2.2220    6.1320 o         1 MOL     -0.687323
    171 H80        -5.2150    0.1180    1.3680 hn        1 MOL      0.343128
    172 H81        -7.3080   -0.7120    3.1890 h1        1 MOL      0.143645
    173 H82        -5.8770    0.2860    4.9810 hc        1 MOL     -0.062831
    174 H83        -4.6140    0.5600    3.6400 hc        1 MOL     -0.062831
    175 H84        -4.6560   -1.8700    3.0990 hc        1 MOL     -0.038852
    176 H85        -5.7310   -2.1280    4.4970 hc        1 MOL     -0.038852
    177 N15        -8.3970    1.5820    3.3670 n         1 MOL     -0.310006
    178 C54        -9.1870    2.7840    3.2190 c3        1 MOL     -0.019205
    179 H86        -8.5650    3.5780    2.8060 h1        1 MOL      0.053034
    180 H87       -10.0230    2.5910    2.5470 h1        1 MOL      0.053034
    181 H88        -9.5670    3.0920    4.1930 h1        1 MOL      0.053034
    182 H89        -8.7550    0.8300    3.9480 hn        1 MOL      0.268608
    183 Ca1        -0.3360   -1.1770    3.8290 Ca        1 MOL      1.830139
    184 O25        -2.1100   -2.8800    2.4320 oh        1 MOL     -0.976980
    185 O26        -0.5940    1.4930    4.3440 oh        1 MOL     -0.976980
    186 H90        -2.4820   -3.7190    2.7130 ho        1 MOL      0.471319
    187 H91        -1.1310    2.0340    3.7590 ho        1 MOL      0.471319
    188 H92        -1.9590   -2.9890    1.4890 ho        1 MOL      0.471319
    189 H93        -0.2410    2.1070    4.9790 ho        1 MOL      0.471319
    190 O27         1.1670   -3.4160    3.9090 oh        1 MOL     -0.976980
    191 H94         1.4230   -4.0310    4.5970 ho        1 MOL      0.471319
    192 H95         1.8740   -3.4810    3.2620 ho        1 MOL      0.471319
    193 O28        -1.2810   -3.4030    5.5130 oh        1 MOL     -0.976980
    194 H96        -2.1330   -2.9730    5.5710 ho        1 MOL      0.471319
    195 H97        -1.3950   -4.2480    5.9500 ho        1 MOL      0.471319
@<TRIPOS>BOND
     1    1    2 1   
     2    1    4 1   
     3    1    5 1   
     4    1    6 1   
     5    2    3 2   
     6    2    7 1   
     7    7    8 1   
     8    7   15 1   
     9    8    9 1   
    10    8   11 1   
    11    8   16 1   
    12    9   10 2   
    13    9   19 1   
    14   11   12 1   
    15   11   17 1   
    16   11   18 1   
    17   12   13 1   
    18   12   14 1   
    19   19   20 1   
    20   19   28 1   
    21   20   21 1   
    22   20   23 1   
    23   20   29 1   
    24   21   22 2   
    25   21   41 1   
    26   23   24 1   
    27   23   30 1   
    28   23   31 1   
    29   24   25 1   
    30   24   32 1   
    31   24   33 1   
    32   25   26 1   
    33   25   34 1   
    34   25   35 1   
    35   26   27 1   
    36   26   36 1   
    37   26   37 1   
    38   27   38 1   
    39   27   39 1   
    40   27   40 1   
    41   41   42 1   
    42   41   49 1   
    43   42   43 1   
    44   42   45 1   
    45   42   50 1   
    46   43   44 2   
    47   43   53 1   
    48   45   46 1   
    49   45   51 1   
    50   45   52 1   
    51   46   47 1   
    52   46   48 1   
    53   53   54 1   
    54   53   57 1   
    55   54   55 1   
    56   54   58 1   
    57   54   59 1   
    58   55   56 2   
    59   55   60 1   
    60   60   61 1   
    61   60   68 1   
    62   61   62 1   
    63   61   64 1   
    64   61   69 1   
    65   62   63 2   
    66   62   72 1   
    67   64   65 1   
    68   64   70 1   
    69   64   71 1   
    70   65   66 1   
    71   65   67 1   
    72   72   73 1   
    73   72   76 1   
    74   73   74 1   
    75   73   77 1   
    76   73   78 1   
    77   74   75 2   
    78   74   79 1   
    79   79   80 1   
    80   79   86 1   
    81   80   81 1   
    82   80   83 1   
    83   80   87 1   
    84   81   82 2   
    85   81   93 1   
    86   83   84 1   
    87   83   85 1   
    88   83   88 1   
    89   84   90 1   
    90   84   91 1   
    91   84   92 1   
    92   85   89 1   
    93   93   94 1   
    94   93  101 1   
    95   94   95 1   
    96   94   97 1   
    97   94  102 1   
    98   95   96 2   
    99   95  112 1   
   100   97   98 1   
   101   97   99 1   
   102   97  103 1   
   103   98  100 1   
   104   98  104 1   
   105   98  105 1   
   106   99  106 1   
   107   99  107 1   
   108   99  108 1   
   109  100  109 1   
   110  100  110 1   
   111  100  111 1   
   112  112  113 1   
   113  112  119 1   
   114  113  114 1   
   115  113  116 1   
   116  113  120 1   
   117  114  115 2   
   118  114  126 1   
   119  116  117 1   
   120  116  118 1   
   121  116  121 1   
   122  117  123 1   
   123  117  124 1   
   124  117  125 1   
   125  118  122 1   
   126  126  127 1   
   127  126  133 1   
   128  127  128 1   
   129  127  130 1   
   130  127  134 1   
   131  128  129 2   
   132  128  140 1   
   133  130  131 1   
   134  130  132 1   
   135  130  135 1   
   136  131  137 1   
   137  131  138 1   
   138  131  139 1   
   139  132  136 1   
   140  140  141 1   
   141  140  149 1   
   142  141  142 1   
   143  141  144 1   
   144  141  150 1   
   145  142  143 2   
   146  142  162 1   
   147  144  145 1   
   148  144  151 1   
   149  144  152 1   
   150  145  146 1   
   151  145  153 1   
   152  145  154 1   
   153  146  147 1   
   154  146  155 1   
   155  146  156 1   
   156  147  148 1   
   157  147  157 1   
   158  147  158 1   
   159  148  159 1   
   160  148  160 1   
   161  148  161 1   
   162  162  163 1   
   163  162  171 1   
   164  163  164 1   
   165  163  166 1   
   166  163  172 1   
   167  164  165 2   
   168  164  177 1   
   169  166  167 1   
   170  166  173 1   
   171  166  174 1   
   172  167  168 1   
   173  167  175 1   
   174  167  176 1   
   175  168  169 1   
   176  168  170 1   
   177  177  178 1   
   178  177  182 1   
   179  178  179 1   
   180  178  180 1   
   181  178  181 1   
   182  184  186 1   
   183  184  188 1   
   184  185  187 1   
   185  185  189 1   
   186  190  191 1   
   187  190  192 1   
   188  193  194 1   
   189  193  195 1   
@<TRIPOS>SUBSTRUCTURE
     1 MOL         1 TEMP              0 ****  ****    0 ROOT
