@<TRIPOS>MOLECULE
MOL
  192   187     1     0     0
SMALL
resp


@<TRIPOS>ATOM
      1 C1         -3.4580   -4.2230    2.3460 c3        1 MOL      0.020287
      2 C2         -2.2820   -4.0430    1.3420 c         1 MOL      0.468995
      3 O1         -1.9210   -2.9310    0.8810 o         1 MOL     -0.500927
      4 H1         -4.3850   -4.3770    1.7940 hc        1 MOL     -0.018019
      5 H2         -3.2650   -5.0870    2.9810 hc        1 MOL     -0.018019
      6 H3         -3.5480   -3.3300    2.9650 hc        1 MOL     -0.018019
      7 N1         -1.7250   -5.1840    0.9400 n         1 MOL     -0.474737
      8 C3         -0.6560   -5.2770   -0.1290 c3        1 MOL     -0.236076
      9 C4          0.6770   -4.6110    0.3310 c         1 MOL      0.636080
     10 O2          1.5600   -4.4320   -0.5030 o         1 MOL     -0.560452
     11 C5         -1.1260   -4.9010   -1.5180 c3        1 MOL     -0.142816
     12 C6         -2.4350   -5.6210   -1.8980 c         1 MOL      0.659850
     13 O3         -2.4450   -6.7420   -2.3020 o         1 MOL     -0.682834
     14 O4         -3.5180   -5.0500   -1.7080 o         1 MOL     -0.682834
     15 H4         -2.1810   -6.0590    1.1400 hn        1 MOL      0.341187
     16 H5         -0.5090   -6.3540   -0.1700 h1        1 MOL      0.165403
     17 H6         -0.3830   -5.1580   -2.2690 hc        1 MOL      0.084874
     18 H7         -1.1590   -3.8170   -1.6350 hc        1 MOL      0.084874
     19 N2          0.7680   -4.1810    1.5640 n         1 MOL     -0.345810
     20 C7          2.0130   -3.7450    2.1810 c3        1 MOL     -0.148847
     21 C8          3.0990   -4.7910    2.6100 c         1 MOL      0.523854
     22 O5          2.7550   -5.9090    2.8940 o         1 MOL     -0.559237
     23 C9          1.7040   -2.6940    3.3570 c3        1 MOL      0.140595
     24 C10         0.6920   -3.1410    4.3960 c3        1 MOL      0.165107
     25 C11         1.1840   -1.4120    2.7080 c3        1 MOL     -0.531960
     26 C12         0.6500   -2.2150    5.6500 c3        1 MOL     -0.334467
     27 H8         -0.0260   -4.3300    2.1720 hn        1 MOL      0.217160
     28 H9          2.5330   -3.2180    1.3800 h1        1 MOL      0.130651
     29 H10         2.6700   -2.5450    3.8330 hc        1 MOL      0.040365
     30 H11         0.9110   -4.1520    4.7470 hc        1 MOL     -0.003777
     31 H12        -0.2680   -3.1970    3.8700 hc        1 MOL     -0.003777
     32 H13         1.9190   -1.0750    1.9790 hc        1 MOL      0.150646
     33 H14         0.2630   -1.7040    2.2030 hc        1 MOL      0.150646
     34 H15         0.9440   -0.6170    3.4270 hc        1 MOL      0.150646
     35 H16         1.6630   -2.2510    6.0650 hc        1 MOL      0.084140
     36 H17         0.2780   -1.2610    5.2810 hc        1 MOL      0.084140
     37 H18        -0.0710   -2.6200    6.3560 hc        1 MOL      0.084140
     38 N3          4.4650   -4.6110    2.5200 n         1 MOL     -0.312923
     39 C13         5.0380   -3.2890    2.3350 c3        1 MOL     -0.065227
     40 C14         5.2860   -2.9420    0.8390 c         1 MOL      0.429740
     41 O6          5.5100   -1.7480    0.5310 o         1 MOL     -0.451175
     42 C15         6.4390   -3.3420    3.0000 c3        1 MOL     -0.270541
     43 C16         6.5390   -3.8840    4.4540 c         1 MOL      0.720914
     44 O7          6.4120   -3.1430    5.4790 o         1 MOL     -0.721580
     45 O8          6.7710   -5.1090    4.5780 o         1 MOL     -0.721580
     46 H19         5.0860   -5.4150    2.5620 hn        1 MOL      0.251433
     47 H20         4.4320   -2.5120    2.7910 h1        1 MOL      0.103496
     48 H21         6.6990   -2.2770    3.0000 hc        1 MOL      0.062593
     49 H22         7.2070   -3.7920    2.3780 hc        1 MOL      0.062593
     50 N4          5.1790   -3.9860   -0.0460 n         1 MOL     -0.237373
     51 C17         5.2520   -3.8490   -1.5230 c3        1 MOL     -0.266236
     52 C18         6.3390   -3.0310   -1.9910 c         1 MOL      0.638654
     53 O9          7.4920   -3.4090   -1.7880 o         1 MOL     -0.579977
     54 H23         5.0060   -4.9020    0.3540 hn        1 MOL      0.257550
     55 H24         4.3690   -3.3320   -1.8760 h1        1 MOL      0.111987
     56 H25         5.3540   -4.8240   -2.0050 h1        1 MOL      0.111987
     57 N5          6.0260   -1.9470   -2.7300 n         1 MOL     -0.515820
     58 C19         7.0240   -1.0310   -3.3090 c3        1 MOL      0.034666
     59 C20         7.8390   -0.2520   -2.2600 c         1 MOL      0.394178
     60 O10         8.8120    0.4060   -2.6010 o         1 MOL     -0.565011
     61 C21         6.3350   -0.1510   -4.3390 c3        1 MOL     -0.124682
     62 C22         5.4830    0.9710   -3.7910 c         1 MOL      0.674216
     63 O11         4.8310    0.6610   -2.7420 o         1 MOL     -0.707800
     64 O12         5.5740    2.1820   -4.1660 o         1 MOL     -0.707800
     65 H26         5.0440   -1.6710   -2.6840 hn        1 MOL      0.295314
     66 H27         7.6690   -1.5940   -3.9820 h1        1 MOL      0.090742
     67 H28         5.6920   -0.6970   -5.0250 hc        1 MOL      0.022344
     68 H29         7.0630    0.3410   -4.9880 hc        1 MOL      0.022344
     69 N6          7.4630   -0.2150   -1.0010 n         1 MOL     -0.071903
     70 C23         7.9690    0.6630    0.0480 c3        1 MOL     -0.316252
     71 C24         7.3760    2.0600    0.1280 c         1 MOL      0.703863
     72 O13         7.7130    2.7110    1.0660 o         1 MOL     -0.617138
     73 H30         6.5800   -0.6850   -0.8480 hn        1 MOL      0.152081
     74 H31         9.0520    0.8030   -0.0100 h1        1 MOL      0.129649
     75 H32         7.7740    0.1100    0.9570 h1        1 MOL      0.129649
     76 N7          6.5650    2.5340   -0.8060 n         1 MOL     -0.389615
     77 C25         6.1180    3.8890   -0.8600 c3        1 MOL      0.016241
     78 C26         5.2460    4.3270    0.3110 c         1 MOL      0.256999
     79 O14         4.9950    5.4900    0.5110 o         1 MOL     -0.500629
     80 C27         7.2770    4.8030   -1.1300 c3        1 MOL      0.254046
     81 C28         8.0370    4.5410   -2.4470 c3        1 MOL     -0.273675
     82 C29         8.9980    5.6270   -2.7990 c         1 MOL      0.708435
     83 N8          9.7470    5.3970   -3.7920 n         1 MOL     -0.788448
     84 O15         9.0170    6.7460   -2.3290 o         1 MOL     -0.606433
     85 H33         6.2820    1.9670   -1.5850 hn        1 MOL      0.229705
     86 H34         5.3400    4.0150   -1.6300 h1        1 MOL      0.113405
     87 H35         7.9680    4.8790   -0.2840 hc        1 MOL     -0.036887
     88 H36         6.8760    5.8080   -1.1620 hc        1 MOL     -0.036887
     89 H37         7.3240    4.3790   -3.2580 hc        1 MOL      0.085111
     90 H38         8.6620    3.6650   -2.2430 hc        1 MOL      0.085111
     91 H39         9.7050    4.5080   -4.2670 hn        1 MOL      0.342686
     92 H40        10.2140    6.1730   -4.2480 hn        1 MOL      0.342686
     93 N9          4.7750    3.4940    1.2010 n         1 MOL      0.147671
     94 C30         3.8380    3.7890    2.3010 c3        1 MOL     -0.483905
     95 C31         2.4170    3.7440    1.9500 c         1 MOL      0.699135
     96 O16         1.5650    4.4940    2.4380 o         1 MOL     -0.572700
     97 C32         4.2030    2.9340    3.6110 c3        1 MOL      0.345408
     98 C33         4.0400    1.4150    3.4420 c3        1 MOL     -0.307224
     99 C34         5.6550    3.2570    4.1070 c3        1 MOL     -0.307224
    100 H41         4.9760    2.5330    0.9830 hn        1 MOL      0.110544
    101 H42         4.0880    4.7960    2.6340 h1        1 MOL      0.151384
    102 H43         3.4750    3.1540    4.3910 hc        1 MOL     -0.031399
    103 H44         2.9960    1.1840    3.2200 hc        1 MOL      0.072302
    104 H45         4.7300    1.0550    2.6890 hc        1 MOL      0.072302
    105 H46         4.3020    1.0860    4.4490 hc        1 MOL      0.072302
    106 H47         6.4120    2.8280    3.4560 hc        1 MOL      0.072302
    107 H48         5.8080    4.3300    4.1890 hc        1 MOL      0.072302
    108 H49         5.7130    2.8970    5.1330 hc        1 MOL      0.072302
    109 N10         2.0370    2.9020    0.9770 n         1 MOL     -0.441750
    110 C35         0.7040    2.4660    0.7680 c3        1 MOL      0.110298
    111 C36        -0.2320    3.5860    0.1480 c         1 MOL      0.577714
    112 O17         0.1860    4.5290   -0.5300 o         1 MOL     -0.541381
    113 C37         0.6580    1.1330   -0.0160 c3        1 MOL     -0.036923
    114 C38        -0.4930    0.1540    0.3440 c         1 MOL      0.499038
    115 N11        -0.5450   -0.8900   -0.3650 n         1 MOL     -0.396696
    116 O18        -1.3410    0.3940    1.1180 o         1 MOL     -0.552138
    117 H50         2.8200    2.5060    0.4910 hn        1 MOL      0.206202
    118 H51         0.2500    2.3440    1.7500 h1        1 MOL      0.011405
    119 H52         1.5760    0.5550    0.0740 hc        1 MOL      0.016066
    120 H53         0.6250    1.3430   -1.0890 hc        1 MOL      0.016066
    121 H54         0.2300   -1.0820   -0.9910 hn        1 MOL      0.233439
    122 H55        -1.2670   -1.5500   -0.1360 hn        1 MOL      0.233439
    123 N12        -1.4990    3.2450    0.2310 n         1 MOL     -0.487491
    124 C39        -2.6110    4.0390   -0.3270 c3        1 MOL      0.137223
    125 C40        -3.8770    3.6900    0.3830 c         1 MOL      0.491833
    126 O19        -3.9460    2.5950    1.0360 o         1 MOL     -0.491562
    127 C41        -2.8450    3.8360   -1.8090 c3        1 MOL     -0.097005
    128 C42        -2.9410    2.4060   -2.2770 ca        1 MOL      0.192102
    129 C43        -1.7790    1.8200   -2.8490 ca        1 MOL     -0.211940
    130 C44        -4.1110    1.6710   -2.1790 ca        1 MOL     -0.211940
    131 C45        -1.8180    0.4630   -3.2660 ca        1 MOL     -0.276567
    132 C46        -4.0890    0.2680   -2.6020 ca        1 MOL     -0.276567
    133 C47        -2.9330   -0.3450   -3.1260 ca        1 MOL      0.345763
    134 O20        -2.9010   -1.6420   -3.5340 oh        1 MOL     -0.516984
    135 H56        -1.7610    2.4090    0.7430 hn        1 MOL      0.259247
    136 H57        -2.2770    5.0680   -0.2000 h1        1 MOL      0.073509
    137 H58        -2.1290    4.3130   -2.4830 hc        1 MOL      0.034179
    138 H59        -3.8080    4.3200   -1.9340 hc        1 MOL      0.034179
    139 H60        -0.8270    2.3360   -2.8790 ha        1 MOL      0.172883
    140 H61        -5.0240    2.0790   -1.7810 ha        1 MOL      0.172883
    141 H62        -0.9400    0.0010   -3.6810 ha        1 MOL      0.142371
    142 H63        -5.0300   -0.2760   -2.5650 ha        1 MOL      0.142371
    143 H64        -2.0270   -1.9660   -3.7890 ho        1 MOL      0.373302
    144 N13        -4.9230    4.5360    0.2300 n         1 MOL     -0.591604
    145 C48        -6.3080    4.2090    0.6090 c3        1 MOL      0.442058
    146 C49        -7.0160    3.5140   -0.6090 c         1 MOL      0.414498
    147 O21        -7.0230    4.0130   -1.7390 o         1 MOL     -0.539261
    148 C50        -6.9400    5.5680    1.0470 c3        1 MOL      0.004574
    149 C51        -8.3990    5.3080    1.5470 c3        1 MOL     -0.111480
    150 C52        -9.1670    6.5860    1.8180 c         1 MOL      0.750397
    151 O22       -10.1460    6.8090    1.1690 o         1 MOL     -0.729095
    152 O23        -8.6670    7.4430    2.5470 o         1 MOL     -0.729095
    153 H65        -4.7920    5.3830   -0.3050 hn        1 MOL      0.281972
    154 H66        -6.2440    3.6020    1.5120 h1        1 MOL     -0.037217
    155 H67        -6.9050    6.3230    0.2730 hc        1 MOL     -0.009413
    156 H68        -6.3570    5.9420    1.8910 hc        1 MOL     -0.009413
    157 H69        -8.4470    4.7180    2.4590 hc        1 MOL     -0.007817
    158 H70        -8.9990    4.7450    0.8320 hc        1 MOL     -0.007817
    159 N14        -7.4610    2.2840   -0.5100 n         1 MOL     -0.558626
    160 C53        -7.5450    1.2740    0.6570 c3        1 MOL      0.043708
    161 C54        -8.6340    1.5010    1.7100 c         1 MOL      0.722321
    162 O24        -9.7300    1.8800    1.3590 o         1 MOL     -0.583578
    163 C55        -7.4870   -0.2200    0.1630 c3        1 MOL      0.216646
    164 C56        -8.8020   -0.6740   -0.5110 c3        1 MOL     -0.109672
    165 C57        -8.5420   -1.6980   -1.6010 c         1 MOL      0.550725
    166 O25        -8.8220   -1.3880   -2.7860 o         1 MOL     -0.648325
    167 O26        -7.9080   -2.7360   -1.3050 o         1 MOL     -0.648325
    168 H71        -7.9560    1.9080   -1.3090 hn        1 MOL      0.396266
    169 H72        -6.6960    1.4510    1.3150 h1        1 MOL      0.027600
    170 H73        -7.1850   -0.9070    0.9530 hc        1 MOL     -0.086934
    171 H74        -6.7180   -0.2010   -0.6090 hc        1 MOL     -0.086934
    172 H75        -9.3710    0.1600   -0.9450 hc        1 MOL     -0.004639
    173 H76        -9.3750   -1.1270    0.2990 hc        1 MOL     -0.004639
    174 N15        -8.4030    1.2220    3.0030 n         1 MOL     -0.315080
    175 C58        -9.3270    1.3760    4.1390 c3        1 MOL     -0.664202
    176 H77       -10.3320    1.0900    3.8300 h1        1 MOL      0.222631
    177 H78        -9.0040    0.7350    4.9590 h1        1 MOL      0.222631
    178 H79        -9.3300    2.4150    4.4680 h1        1 MOL      0.222631
    179 H80        -7.4370    1.0070    3.1670 hn        1 MOL      0.242633
    180 Ca1        -6.0000   -4.3670   -1.5070 Ca        1 MOL      1.631981
    181 O27        -7.6800   -5.0610   -3.5170 oh        1 MOL     -0.849955
    182 H81        -8.2860   -5.8030   -3.5680 ho        1 MOL      0.412223
    183 H82        -8.1010   -4.3720   -4.0270 ho        1 MOL      0.412223
    184 O28        -5.5040   -6.8890   -2.8210 oh        1 MOL     -0.849955
    185 O29        -5.2480   -2.9760   -3.8100 oh        1 MOL     -0.849955
    186 H83        -5.9240   -7.4770   -3.4540 ho        1 MOL      0.412223
    187 H84        -4.5600   -2.3280   -3.6630 ho        1 MOL      0.412223
    188 H85        -4.8070   -7.4130   -2.4450 ho        1 MOL      0.412223
    189 H86        -5.1570   -3.2360   -4.7310 ho        1 MOL      0.412223
    190 O30        -4.4670   -2.4680   -0.4930 oh        1 MOL     -0.849955
    191 H87        -3.5300   -2.6610   -0.5630 ho        1 MOL      0.412223
    192 H88        -4.5140   -1.6690    0.0250 ho        1 MOL      0.412223
@<TRIPOS>BOND
     1    1    2 1   
     2    1    4 1   
     3    1    5 1   
     4    1    6 1   
     5    2    3 2   
     6    2    7 1   
     7    7    8 1   
     8    7   15 1   
     9    8    9 1   
    10    8   11 1   
    11    8   16 1   
    12    9   10 2   
    13    9   19 1   
    14   11   12 1   
    15   11   17 1   
    16   11   18 1   
    17   12   13 1   
    18   12   14 1   
    19   19   20 1   
    20   19   27 1   
    21   20   21 1   
    22   20   23 1   
    23   20   28 1   
    24   21   22 2   
    25   21   38 1   
    26   23   24 1   
    27   23   25 1   
    28   23   29 1   
    29   24   26 1   
    30   24   30 1   
    31   24   31 1   
    32   25   32 1   
    33   25   33 1   
    34   25   34 1   
    35   26   35 1   
    36   26   36 1   
    37   26   37 1   
    38   38   39 1   
    39   38   46 1   
    40   39   40 1   
    41   39   42 1   
    42   39   47 1   
    43   40   41 2   
    44   40   50 1   
    45   42   43 1   
    46   42   48 1   
    47   42   49 1   
    48   43   44 1   
    49   43   45 1   
    50   50   51 1   
    51   50   54 1   
    52   51   52 1   
    53   51   55 1   
    54   51   56 1   
    55   52   53 2   
    56   52   57 1   
    57   57   58 1   
    58   57   65 1   
    59   58   59 1   
    60   58   61 1   
    61   58   66 1   
    62   59   60 2   
    63   59   69 1   
    64   61   62 1   
    65   61   67 1   
    66   61   68 1   
    67   62   63 1   
    68   62   64 1   
    69   69   70 1   
    70   69   73 1   
    71   70   71 1   
    72   70   74 1   
    73   70   75 1   
    74   71   72 2   
    75   71   76 1   
    76   76   77 1   
    77   76   85 1   
    78   77   78 1   
    79   77   80 1   
    80   77   86 1   
    81   78   79 2   
    82   78   93 1   
    83   80   81 1   
    84   80   87 1   
    85   80   88 1   
    86   81   82 1   
    87   81   89 1   
    88   81   90 1   
    89   82   83 1   
    90   82   84 2   
    91   83   91 1   
    92   83   92 1   
    93   93   94 1   
    94   93  100 1   
    95   94   95 1   
    96   94   97 1   
    97   94  101 1   
    98   95   96 2   
    99   95  109 1   
   100   97   98 1   
   101   97   99 1   
   102   97  102 1   
   103   98  103 1   
   104   98  104 1   
   105   98  105 1   
   106   99  106 1   
   107   99  107 1   
   108   99  108 1   
   109  109  110 1   
   110  109  117 1   
   111  110  111 1   
   112  110  113 1   
   113  110  118 1   
   114  111  112 2   
   115  111  123 1   
   116  113  114 1   
   117  113  119 1   
   118  113  120 1   
   119  114  115 1   
   120  114  116 2   
   121  115  121 1   
   122  115  122 1   
   123  123  124 1   
   124  123  135 1   
   125  124  125 1   
   126  124  127 1   
   127  124  136 1   
   128  125  126 2   
   129  125  144 1   
   130  127  128 1   
   131  127  137 1   
   132  127  138 1   
   133  128  129 ar  
   134  128  130 ar  
   135  129  131 ar  
   136  129  139 1   
   137  130  132 ar  
   138  130  140 1   
   139  131  133 ar  
   140  131  141 1   
   141  132  133 ar  
   142  132  142 1   
   143  133  134 1   
   144  134  143 1   
   145  144  145 1   
   146  144  153 1   
   147  145  146 1   
   148  145  148 1   
   149  145  154 1   
   150  146  147 2   
   151  146  159 1   
   152  148  149 1   
   153  148  155 1   
   154  148  156 1   
   155  149  150 1   
   156  149  157 1   
   157  149  158 1   
   158  150  151 1   
   159  150  152 1   
   160  159  160 1   
   161  159  168 1   
   162  160  161 1   
   163  160  163 1   
   164  160  169 1   
   165  161  162 2   
   166  161  174 1   
   167  163  164 1   
   168  163  170 1   
   169  163  171 1   
   170  164  165 1   
   171  164  172 1   
   172  164  173 1   
   173  165  166 1   
   174  165  167 1   
   175  174  175 1   
   176  174  179 1   
   177  175  176 1   
   178  175  177 1   
   179  175  178 1   
   180  181  182 1   
   181  181  183 1   
   182  184  186 1   
   183  184  188 1   
   184  185  187 1   
   185  185  189 1   
   186  190  191 1   
   187  190  192 1   
@<TRIPOS>SUBSTRUCTURE
     1 MOL         1 TEMP              0 ****  ****    0 ROOT
