@<TRIPOS>MOLECULE
MOL
  195   189     1     0     0
SMALL
resp


@<TRIPOS>ATOM
      1 C1          4.0470   -1.7990   -2.7260 c3        1 MOL     -0.468382
      2 C2          3.3440   -2.5950   -1.5630 c         1 MOL      0.724291
      3 O1          2.3800   -2.0810   -0.9110 o         1 MOL     -0.502388
      4 H1          3.3040   -1.5140   -3.4710 hc        1 MOL      0.107219
      5 H2          4.5180   -0.9030   -2.3220 hc        1 MOL      0.107219
      6 H3          4.8040   -2.4290   -3.1920 hc        1 MOL      0.107219
      7 N1          3.6790   -3.8940   -1.3570 n         1 MOL     -0.612026
      8 C3          3.0030   -4.8050   -0.4310 c3        1 MOL     -0.220485
      9 C4          1.4960   -4.9960   -0.6090 c         1 MOL      0.831242
     10 O2          0.7220   -5.1120    0.3520 o         1 MOL     -0.575158
     11 C5          3.3480   -4.5290    1.0340 c3        1 MOL     -0.296726
     12 C6          4.8980   -4.4390    1.2640 c         1 MOL      0.890896
     13 O3          5.2330   -3.6880    2.1910 o         1 MOL     -0.773999
     14 O4          5.7890   -4.9910    0.5770 o         1 MOL     -0.773999
     15 H4          4.3180   -4.3020   -2.0280 hn        1 MOL      0.339824
     16 H5          3.3810   -5.7850   -0.7040 h1        1 MOL      0.120566
     17 H6          2.9970   -5.3550    1.6410 hc        1 MOL      0.127157
     18 H7          2.9050   -3.5750    1.3390 hc        1 MOL      0.127157
     19 N2          1.0130   -4.8700   -1.8440 n         1 MOL     -0.686538
     20 C7         -0.3600   -5.0880   -2.2430 c3        1 MOL     -0.190048
     21 C8         -0.8830   -6.4410   -1.7950 c         1 MOL      0.679183
     22 O5         -0.1900   -7.4410   -1.8930 o         1 MOL     -0.626430
     23 C9         -0.5190   -4.8080   -3.7210 c3        1 MOL      0.094878
     24 C10         0.3010   -5.8430   -4.5780 c3        1 MOL      0.049547
     25 C11        -0.1280   -3.3540   -3.9160 c3        1 MOL     -0.523295
     26 C12         0.0370   -5.4870   -6.0620 c3        1 MOL     -0.389233
     27 H8          1.7400   -4.8350   -2.5430 hn        1 MOL      0.385053
     28 H9         -0.9270   -4.3100   -1.7440 h1        1 MOL      0.263897
     29 H10        -1.5830   -4.9260   -3.8910 hc        1 MOL      0.083223
     30 H11         0.0700   -6.9030   -4.5700 hc        1 MOL      0.028289
     31 H12         1.3530   -5.6910   -4.3330 hc        1 MOL      0.028289
     32 H13        -0.5300   -2.9150   -4.8340 hc        1 MOL      0.142528
     33 H14        -0.4160   -2.8200   -3.0110 hc        1 MOL      0.142528
     34 H15         0.9480   -3.2090   -3.9670 hc        1 MOL      0.142528
     35 H16         0.1990   -4.4660   -6.3950 hc        1 MOL      0.091880
     36 H17         0.4680   -6.1910   -6.7720 hc        1 MOL      0.091880
     37 H18        -0.9920   -5.7710   -6.2550 hc        1 MOL      0.091880
     38 N3         -2.0750   -6.5800   -1.2260 n         1 MOL     -0.531553
     39 C13        -3.1450   -5.6240   -1.1540 c3        1 MOL     -0.050796
     40 C14        -4.1100   -5.8380    0.0320 c         1 MOL      0.732348
     41 O6         -5.0360   -6.6060    0.0080 o         1 MOL     -0.553617
     42 C15        -4.0100   -5.8410   -2.4210 c3        1 MOL     -0.230042
     43 C16        -5.1100   -4.7100   -2.4660 c         1 MOL      0.789843
     44 O7         -5.2130   -3.7450   -1.7060 o         1 MOL     -0.715031
     45 O8         -5.9610   -4.9000   -3.3500 o         1 MOL     -0.715031
     46 H19        -2.2450   -7.4720   -0.7610 hn        1 MOL      0.313261
     47 H20        -2.8590   -4.5740   -1.0880 h1        1 MOL     -0.010238
     48 H21        -4.4650   -6.8270   -2.3180 hc        1 MOL      0.054276
     49 H22        -3.3820   -5.6960   -3.2970 hc        1 MOL      0.054276
     50 N4         -3.8000   -5.1480    1.1070 n         1 MOL     -0.573336
     51 C17        -4.5700   -5.1960    2.4110 c3        1 MOL      0.136232
     52 C18        -5.6510   -4.1900    2.6640 c         1 MOL      0.393736
     53 O9         -6.8470   -4.4330    2.3630 o         1 MOL     -0.502499
     54 H23        -2.9440   -4.6090    1.0230 hn        1 MOL      0.331197
     55 H24        -3.8420   -5.2270    3.2210 h1        1 MOL      0.020056
     56 H25        -4.9770   -6.2010    2.5690 h1        1 MOL      0.020056
     57 N5         -5.2050   -3.0560    3.1370 n         1 MOL     -0.330820
     58 C19        -5.9170   -1.8960    3.5380 c3        1 MOL     -0.015174
     59 C20        -7.0540   -1.4820    2.5970 c         1 MOL      0.411617
     60 O10        -8.1840   -1.3390    3.0370 o         1 MOL     -0.545714
     61 C21        -4.9720   -0.7040    3.7400 c3        1 MOL     -0.261798
     62 C22        -3.9620   -0.5690    2.5600 c         1 MOL      0.717210
     63 O11        -4.0880    0.2520    1.6230 o         1 MOL     -0.672951
     64 O12        -3.0100   -1.3440    2.6480 o         1 MOL     -0.672951
     65 H26        -4.1930   -3.0650    3.1310 hn        1 MOL      0.232090
     66 H27        -6.3590   -2.1620    4.4950 h1        1 MOL      0.078216
     67 H28        -4.4700   -0.7740    4.7120 hc        1 MOL      0.069592
     68 H29        -5.5240    0.2160    3.8910 hc        1 MOL      0.069592
     69 N6         -6.6880   -1.3200    1.3110 n         1 MOL     -0.000606
     70 C23        -7.5170   -0.7460    0.2950 c3        1 MOL     -0.307703
     71 C24        -7.5750    0.8030    0.3200 c         1 MOL      0.465019
     72 O13        -8.4990    1.3640   -0.2790 o         1 MOL     -0.567015
     73 H30        -5.7350   -1.4080    0.9860 hn        1 MOL      0.221538
     74 H31        -8.4830   -1.1490    0.5880 h1        1 MOL      0.132830
     75 H32        -7.3560   -1.1590   -0.7070 h1        1 MOL      0.132830
     76 N7         -6.6710    1.4600    1.0330 n         1 MOL      0.092652
     77 C25        -6.7140    2.9160    1.2140 c3        1 MOL     -0.046579
     78 C26        -6.7270    3.7580   -0.0930 c         1 MOL      0.476241
     79 O14        -7.1950    4.9420   -0.2070 o         1 MOL     -0.518032
     80 C27        -7.8090    3.2920    2.2840 c3        1 MOL      0.066011
     81 C28        -7.8020    2.2990    3.4780 c3        1 MOL     -0.018480
     82 C29        -8.5340    2.9300    4.6670 c         1 MOL      0.606487
     83 N8         -9.8530    3.0920    4.6510 n         1 MOL     -0.791435
     84 O15        -7.8530    3.3340    5.6250 o         1 MOL     -0.576671
     85 H33        -5.8750    0.9660    1.4070 hn        1 MOL      0.028687
     86 H34        -5.7380    3.0930    1.6530 h1        1 MOL      0.105486
     87 H35        -8.8100    3.2580    1.8700 hc        1 MOL     -0.018963
     88 H36        -7.6610    4.3250    2.5930 hc        1 MOL     -0.018963
     89 H37        -6.7720    2.1090    3.7490 hc        1 MOL     -0.013491
     90 H38        -8.2510    1.3340    3.2460 hc        1 MOL     -0.013491
     91 H39       -10.3010    3.0060    3.7530 hn        1 MOL      0.357683
     92 H40       -10.2680    3.6010    5.4240 hn        1 MOL      0.357683
     93 N9         -5.9590    3.3050   -1.1900 n         1 MOL     -0.425220
     94 C30        -5.6450    3.9890   -2.4840 c3        1 MOL      0.048865
     95 C31        -4.2220    3.8730   -2.9490 c         1 MOL      0.529423
     96 O16        -3.6900    4.7760   -3.6400 o         1 MOL     -0.582266
     97 C32        -6.5890    3.6300   -3.6550 c3        1 MOL      0.261854
     98 C33        -6.5800    2.1260   -3.9260 c3        1 MOL     -0.290844
     99 C34        -8.0120    4.0940   -3.2940 c3        1 MOL     -0.290844
    100 H41        -5.6450    2.3430   -1.1120 hn        1 MOL      0.150128
    101 H42        -5.7340    5.0700   -2.4130 h1        1 MOL      0.080612
    102 H43        -6.2220    4.1800   -4.5250 hc        1 MOL     -0.042969
    103 H44        -7.1800    1.9340   -4.8180 hc        1 MOL      0.065339
    104 H45        -5.5880    1.7090   -4.0770 hc        1 MOL      0.065339
    105 H46        -7.1420    1.6460   -3.1230 hc        1 MOL      0.065339
    106 H47        -8.5890    4.0490   -4.2250 hc        1 MOL      0.065339
    107 H48        -8.3590    3.4680   -2.4730 hc        1 MOL      0.065339
    108 H49        -8.0360    5.1400   -3.0020 hc        1 MOL      0.065339
    109 N10        -3.4920    2.8400   -2.5570 n         1 MOL     -0.489710
    110 C35        -1.9900    2.6360   -2.7300 c3        1 MOL      0.263516
    111 C36        -1.2440    3.1270   -1.4680 c         1 MOL      0.606555
    112 O17        -1.8420    3.3500   -0.4430 o         1 MOL     -0.564117
    113 C37        -1.7530    1.0970   -3.0590 c3        1 MOL     -0.328090
    114 C38        -0.3230    0.6460   -2.9410 c         1 MOL      0.585886
    115 N11        -0.0080   -0.3750   -2.1120 n         1 MOL     -0.626470
    116 O18         0.5500    1.3180   -3.5230 o         1 MOL     -0.565891
    117 H50        -3.9400    2.1240   -2.0060 hn        1 MOL      0.319256
    118 H51        -1.6990    3.2880   -3.5550 h1        1 MOL      0.042443
    119 H52        -2.0150    0.9340   -4.1040 hc        1 MOL      0.094953
    120 H53        -2.3970    0.4280   -2.4910 hc        1 MOL      0.094953
    121 H54        -0.7240   -0.7720   -1.5330 hn        1 MOL      0.333779
    122 H55         0.8960   -0.8220   -2.0820 hn        1 MOL      0.333779
    123 N12         0.0700    3.1060   -1.5310 n         1 MOL     -0.620149
    124 C39         0.9000    3.4360   -0.3560 c3        1 MOL      0.290758
    125 C40         2.2290    4.0320   -0.7940 c         1 MOL      0.456264
    126 O19         2.6810    3.6630   -1.8590 o         1 MOL     -0.535808
    127 C41         1.1740    2.1160    0.4440 c3        1 MOL     -0.025703
    128 C42         1.9150    2.2910    1.7400 ca        1 MOL      0.005395
    129 C43         3.2990    2.1530    1.7800 ca        1 MOL     -0.187412
    130 C44         1.1640    2.5470    2.9230 ca        1 MOL     -0.187412
    131 C45         3.9250    2.5010    2.9770 ca        1 MOL     -0.196150
    132 C46         1.8120    2.9680    4.0480 ca        1 MOL     -0.196150
    133 C47         3.2350    2.8340    4.1410 ca        1 MOL      0.307614
    134 O20         3.8130    3.2570    5.2670 oh        1 MOL     -0.528668
    135 H56         0.4680    2.7570   -2.3980 hn        1 MOL      0.301832
    136 H57         0.4350    4.0320    0.4240 h1        1 MOL     -0.000752
    137 H58         1.5870    1.2910   -0.1370 hc        1 MOL      0.046059
    138 H59         0.2010    1.7390    0.7490 hc        1 MOL      0.046059
    139 H60         3.8700    1.9040    0.8990 ha        1 MOL      0.167275
    140 H61         0.0810    2.5570    2.9520 ha        1 MOL      0.167275
    141 H62         4.9810    2.6900    2.8710 ha        1 MOL      0.120264
    142 H63         1.2870    3.1770    4.9590 ha        1 MOL      0.120264
    143 H64         4.7610    3.4230    5.2430 ho        1 MOL      0.389538
    144 N13         2.8280    4.8790    0.0280 n         1 MOL     -0.605100
    145 C48         4.1770    5.4240   -0.1680 c3        1 MOL      0.489688
    146 C49         5.0990    4.7560    0.7800 c         1 MOL      0.292994
    147 O21         5.1520    5.1260    1.9420 o         1 MOL     -0.527123
    148 C50         4.2120    6.9640   -0.0300 c3        1 MOL      0.087585
    149 C51         3.2040    7.7140   -0.8280 c3        1 MOL     -0.197633
    150 C52         3.5680    9.2280   -0.7690 c         1 MOL      0.724218
    151 O22         3.3050    9.8310    0.2810 o         1 MOL     -0.703716
    152 O23         4.0510    9.8310   -1.7470 o         1 MOL     -0.703716
    153 H65         2.3150    5.2740    0.8080 hn        1 MOL      0.340499
    154 H66         4.4780    5.2970   -1.2080 h1        1 MOL      0.011660
    155 H67         5.2000    7.3280   -0.3130 hc        1 MOL     -0.027456
    156 H68         4.0730    7.0800    1.0500 hc        1 MOL     -0.027456
    157 H69         2.2160    7.4920   -0.4150 hc        1 MOL      0.001424
    158 H70         3.2040    7.4770   -1.8940 hc        1 MOL      0.001424
    159 N14         5.8710    3.7580    0.4340 n         1 MOL     -0.324531
    160 C53         5.8880    3.0640   -0.8900 c3        1 MOL     -0.036853
    161 C54         6.3690    4.0280   -1.9510 c         1 MOL      0.418731
    162 O24         7.1710    4.8710   -1.5780 o         1 MOL     -0.530586
    163 C55         6.7510    1.7860   -0.7360 c3        1 MOL     -0.003452
    164 C56         6.0160    0.6470    0.0000 c3        1 MOL      0.089368
    165 C57         6.9120   -0.6200    0.2560 c         1 MOL      0.734721
    166 O25         6.6880   -1.7630   -0.2280 o         1 MOL     -0.759220
    167 O26         7.6850   -0.5480    1.1530 o         1 MOL     -0.759220
    168 H71         6.4410    3.3270    1.1500 hn        1 MOL      0.257614
    169 H72         4.8780    2.8120   -1.1900 h1        1 MOL      0.075517
    170 H73         7.6500    2.1170   -0.2250 hc        1 MOL     -0.001267
    171 H74         7.0040    1.3850   -1.7220 hc        1 MOL     -0.001267
    172 H75         5.0620    0.3960   -0.4730 hc        1 MOL     -0.024595
    173 H76         5.7510    1.0860    0.9670 hc        1 MOL     -0.024595
    174 N15         5.7710    4.0130   -3.1150 n         1 MOL     -0.238288
    175 C58         5.9960    4.9360   -4.1820 c3        1 MOL     -0.223258
    176 H77         6.2810    4.3890   -5.0810 h1        1 MOL      0.101250
    177 H78         5.0830    5.5000   -4.3750 h1        1 MOL      0.101250
    178 H79         6.7970    5.6220   -3.9060 h1        1 MOL      0.101250
    179 H80         5.1250    3.2570   -3.2970 hn        1 MOL      0.261232
    180 Ca1         7.9010   -3.3050    1.5110 Ca        1 MOL      1.578835
    181 O27         9.3210   -5.6260    1.6250 oh        1 MOL     -0.709047
    182 H81        10.2740   -5.5430    1.6270 ho        1 MOL      0.336987
    183 H82         9.1590   -6.5370    1.3940 ho        1 MOL      0.336987
    184 O28         9.8240   -2.5790    3.5450 oh        1 MOL     -0.709047
    185 H83         9.5290   -2.0520    4.2870 ho        1 MOL      0.336987
    186 H84        10.7750   -2.6120    3.6370 ho        1 MOL      0.336987
    187 O29         7.2150   -4.8570    3.7310 oh        1 MOL     -0.709047
    188 H85         7.4220   -5.2430    4.5850 ho        1 MOL      0.336987
    189 H86         6.2680   -4.8210    3.7030 ho        1 MOL      0.336987
    190 O30         6.7730   -1.2140    3.5790 oh        1 MOL     -0.709047
    191 H87         7.2460   -0.8350    2.8310 ho        1 MOL      0.336987
    192 H88         5.9860   -0.6830    3.6520 ho        1 MOL      0.336987
    193 O31        10.3770   -2.5220    0.7690 oh        1 MOL     -0.709047
    194 H89        11.0680   -3.1830    0.7920 ho        1 MOL      0.336987
    195 H90        10.6470   -1.9070    0.0960 ho        1 MOL      0.336987
@<TRIPOS>BOND
     1    1    2 1   
     2    1    4 1   
     3    1    5 1   
     4    1    6 1   
     5    2    3 2   
     6    2    7 1   
     7    7    8 1   
     8    7   15 1   
     9    8    9 1   
    10    8   11 1   
    11    8   16 1   
    12    9   10 2   
    13    9   19 1   
    14   11   12 1   
    15   11   17 1   
    16   11   18 1   
    17   12   13 1   
    18   12   14 1   
    19   19   20 1   
    20   19   27 1   
    21   20   21 1   
    22   20   23 1   
    23   20   28 1   
    24   21   22 2   
    25   21   38 1   
    26   23   24 1   
    27   23   25 1   
    28   23   29 1   
    29   24   26 1   
    30   24   30 1   
    31   24   31 1   
    32   25   32 1   
    33   25   33 1   
    34   25   34 1   
    35   26   35 1   
    36   26   36 1   
    37   26   37 1   
    38   38   39 1   
    39   38   46 1   
    40   39   40 1   
    41   39   42 1   
    42   39   47 1   
    43   40   41 2   
    44   40   50 1   
    45   42   43 1   
    46   42   48 1   
    47   42   49 1   
    48   43   44 1   
    49   43   45 1   
    50   50   51 1   
    51   50   54 1   
    52   51   52 1   
    53   51   55 1   
    54   51   56 1   
    55   52   53 2   
    56   52   57 1   
    57   57   58 1   
    58   57   65 1   
    59   58   59 1   
    60   58   61 1   
    61   58   66 1   
    62   59   60 2   
    63   59   69 1   
    64   61   62 1   
    65   61   67 1   
    66   61   68 1   
    67   62   63 1   
    68   62   64 1   
    69   69   70 1   
    70   69   73 1   
    71   70   71 1   
    72   70   74 1   
    73   70   75 1   
    74   71   72 2   
    75   71   76 1   
    76   76   77 1   
    77   76   85 1   
    78   77   78 1   
    79   77   80 1   
    80   77   86 1   
    81   78   79 2   
    82   78   93 1   
    83   80   81 1   
    84   80   87 1   
    85   80   88 1   
    86   81   82 1   
    87   81   89 1   
    88   81   90 1   
    89   82   83 1   
    90   82   84 2   
    91   83   91 1   
    92   83   92 1   
    93   93   94 1   
    94   93  100 1   
    95   94   95 1   
    96   94   97 1   
    97   94  101 1   
    98   95   96 2   
    99   95  109 1   
   100   97   98 1   
   101   97   99 1   
   102   97  102 1   
   103   98  103 1   
   104   98  104 1   
   105   98  105 1   
   106   99  106 1   
   107   99  107 1   
   108   99  108 1   
   109  109  110 1   
   110  109  117 1   
   111  110  111 1   
   112  110  113 1   
   113  110  118 1   
   114  111  112 2   
   115  111  123 1   
   116  113  114 1   
   117  113  119 1   
   118  113  120 1   
   119  114  115 1   
   120  114  116 2   
   121  115  121 1   
   122  115  122 1   
   123  123  124 1   
   124  123  135 1   
   125  124  125 1   
   126  124  127 1   
   127  124  136 1   
   128  125  126 2   
   129  125  144 1   
   130  127  128 1   
   131  127  137 1   
   132  127  138 1   
   133  128  129 ar  
   134  128  130 ar  
   135  129  131 ar  
   136  129  139 1   
   137  130  132 ar  
   138  130  140 1   
   139  131  133 ar  
   140  131  141 1   
   141  132  133 ar  
   142  132  142 1   
   143  133  134 1   
   144  134  143 1   
   145  144  145 1   
   146  144  153 1   
   147  145  146 1   
   148  145  148 1   
   149  145  154 1   
   150  146  147 2   
   151  146  159 1   
   152  148  149 1   
   153  148  155 1   
   154  148  156 1   
   155  149  150 1   
   156  149  157 1   
   157  149  158 1   
   158  150  151 1   
   159  150  152 1   
   160  159  160 1   
   161  159  168 1   
   162  160  161 1   
   163  160  163 1   
   164  160  169 1   
   165  161  162 2   
   166  161  174 1   
   167  163  164 1   
   168  163  170 1   
   169  163  171 1   
   170  164  165 1   
   171  164  172 1   
   172  164  173 1   
   173  165  166 1   
   174  165  167 1   
   175  174  175 1   
   176  174  179 1   
   177  175  176 1   
   178  175  177 1   
   179  175  178 1   
   180  181  182 1   
   181  181  183 1   
   182  184  185 1   
   183  184  186 1   
   184  187  188 1   
   185  187  189 1   
   186  190  191 1   
   187  190  192 1   
   188  193  194 1   
   189  193  195 1   
@<TRIPOS>SUBSTRUCTURE
     1 MOL         1 TEMP              0 ****  ****    0 ROOT
