@<TRIPOS>MOLECULE
MOL
  182   178     1     0     0
SMALL
resp


@<TRIPOS>ATOM
      1 C1          0.9520   -6.4120    4.4790 c3        1 MOL     -0.349245
      2 C2          1.0060   -5.4880    3.2530 c         1 MOL      0.797768
      3 O1          0.1450   -5.4830    2.4120 o         1 MOL     -0.618243
      4 H1          1.4250   -5.9180    5.3280 hc        1 MOL      0.089566
      5 H2         -0.0870   -6.6330    4.7220 hc        1 MOL      0.089566
      6 H3          1.4800   -7.3400    4.2590 hc        1 MOL      0.089566
      7 N1          1.9620   -4.5980    3.2070 n         1 MOL     -0.576827
      8 C3          2.3170   -3.7970    2.0350 c3        1 MOL      0.013975
      9 C4          2.9090   -4.5350    0.8550 c         1 MOL      0.520890
     10 O2          3.9600   -5.1840    0.8930 o         1 MOL     -0.533837
     11 C5          3.1750   -2.6020    2.3580 c3        1 MOL      0.063601
     12 C6          3.1650   -1.5240    1.2990 c         1 MOL      0.535542
     13 O3          3.6930   -0.4380    1.4680 o         1 MOL     -0.664802
     14 O4          2.6460   -1.8160    0.1800 o         1 MOL     -0.664802
     15 H4          2.4670   -4.5550    4.0750 hn        1 MOL      0.307840
     16 H5          1.3850   -3.3550    1.6610 h1        1 MOL      0.138060
     17 H6          4.2130   -2.8860    2.5740 hc        1 MOL      0.002936
     18 H7          2.6920   -2.0680    3.1740 hc        1 MOL      0.002936
     19 N2          2.2500   -4.4580   -0.3010 n         1 MOL     -0.219981
     20 C7          2.5800   -5.1210   -1.5750 c3        1 MOL     -0.003109
     21 C8          3.8770   -4.5460   -2.2780 c         1 MOL      0.646903
     22 O5          4.4680   -5.2390   -3.0840 o         1 MOL     -0.574462
     23 C9          1.3650   -5.0390   -2.5210 c3        1 MOL     -0.175107
     24 C10         1.1960   -3.6160   -3.0800 c3        1 MOL      0.031452
     25 C11        -0.2590   -3.4080   -3.5400 c3        1 MOL     -0.013162
     26 C12        -0.5520   -2.0170   -4.2240 c3        1 MOL     -0.120751
     27 N3         -1.9540   -1.6870   -4.0640 n4        1 MOL     -0.214060
     28 H8          1.5510   -3.7260   -0.3030 hn        1 MOL      0.074308
     29 H9          2.9480   -6.1180   -1.3540 h1        1 MOL      0.107804
     30 H10         0.4570   -5.3200   -1.9970 hc        1 MOL      0.063989
     31 H11         1.6360   -5.6590   -3.3740 hc        1 MOL      0.063989
     32 H12         1.9860   -3.3980   -3.7920 hc        1 MOL      0.092422
     33 H13         1.2720   -2.9400   -2.2280 hc        1 MOL      0.092422
     34 H14        -1.0280   -3.6280   -2.7970 hc        1 MOL      0.025380
     35 H15        -0.4060   -4.1790   -4.2910 hc        1 MOL      0.025380
     36 H16        -0.1810   -1.9290   -5.2480 hx        1 MOL      0.105333
     37 H17         0.0060   -1.2910   -3.6260 hx        1 MOL      0.105333
     38 H18        -2.5900   -2.4520   -4.1680 hn        1 MOL      0.278943
     39 H19        -2.0980   -1.2810   -3.1490 hn        1 MOL      0.278943
     40 H20        -2.1840   -0.9720   -4.7420 hn        1 MOL      0.278943
     41 N4          4.2910   -3.3460   -1.9090 n         1 MOL     -0.076303
     42 C13         5.3690   -2.6590   -2.6260 c3        1 MOL     -0.090321
     43 C14         6.4070   -1.9430   -1.7560 c         1 MOL      0.427223
     44 O6          7.4840   -1.4650   -2.2070 o         1 MOL     -0.509748
     45 C15         4.7300   -1.5010   -3.3840 c3        1 MOL     -0.060313
     46 C16         3.6900   -0.7450   -2.7090 c         1 MOL      0.915296
     47 O7          2.4990   -0.7260   -3.1110 o         1 MOL     -0.815293
     48 O8          3.9680    0.0050   -1.7540 o         1 MOL     -0.815293
     49 H21         3.5860   -2.8660   -1.3810 hn        1 MOL     -0.524483
     50 H22         5.8110   -3.2940   -3.3900 h1        1 MOL      0.148674
     51 H23         4.3760   -1.8200   -4.3610 hc        1 MOL      0.028966
     52 H24         5.4980   -0.8550   -3.7920 hc        1 MOL      0.028966
     53 N5          6.1670   -1.9020   -0.4500 n         1 MOL     -0.183023
     54 C17         7.0480   -1.2230    0.4520 c3        1 MOL     -0.329953
     55 C18         7.2210    0.2710    0.2540 c         1 MOL      0.605272
     56 O9          8.1120    0.9260    0.8650 o         1 MOL     -0.537562
     57 H25         5.2370   -2.0830   -0.1010 hn        1 MOL      0.349502
     58 H26         8.0150   -1.7040    0.4410 h1        1 MOL      0.159419
     59 H27         6.6750   -1.4500    1.4570 h1        1 MOL      0.159419
     60 N6          6.3410    0.9700   -0.5420 n         1 MOL     -0.452686
     61 C19         6.4460    2.4370   -0.8070 c3        1 MOL      0.372963
     62 C20         5.0380    3.1060   -0.7210 c         1 MOL      0.427265
     63 O10         3.9180    2.5170   -0.7730 o         1 MOL     -0.471230
     64 C21         7.1130    2.7290   -2.1460 c3        1 MOL     -0.395735
     65 C22         8.5340    2.1830   -2.1840 c         1 MOL      0.662236
     66 N7          8.6870    0.8820   -2.3800 n         1 MOL     -0.720777
     67 O11         9.5280    2.8390   -2.0370 o         1 MOL     -0.557116
     68 H28         5.4910    0.5470   -0.8820 hn        1 MOL      0.286635
     69 H29         7.0130    2.8220    0.0350 h1        1 MOL      0.003277
     70 H30         7.2630    3.8000   -2.2530 hc        1 MOL      0.080463
     71 H31         6.4780    2.2420   -2.8920 hc        1 MOL      0.080463
     72 H32         7.9410    0.2320   -2.5950 hn        1 MOL      0.336933
     73 H33         9.6410    0.5980   -2.5530 hn        1 MOL      0.336933
     74 N8          4.9880    4.4860   -0.6810 n         1 MOL     -0.444107
     75 C23         3.7890    5.3520   -0.5770 c3        1 MOL     -0.008017
     76 C24         2.9010    5.1170    0.6790 c         1 MOL      0.602619
     77 O12         3.3670    5.0050    1.8450 o         1 MOL     -0.512833
     78 H34         5.8870    4.9460   -0.6630 hn        1 MOL      0.311193
     79 H35         3.1840    5.2150   -1.4690 h1        1 MOL      0.058096
     80 H36         4.1450    6.3810   -0.5930 h1        1 MOL      0.058096
     81 N9          1.6140    4.7980    0.4270 n         1 MOL     -0.783113
     82 C25         0.6590    4.3260    1.4270 c3        1 MOL      0.833074
     83 C26         0.8520    2.8820    1.8980 c         1 MOL      0.003484
     84 O13         1.7730    2.1800    1.4530 o         1 MOL     -0.404654
     85 C27        -0.7620    4.5340    0.8730 c3        1 MOL     -0.404533
     86 C28        -1.2450    5.9170    0.4540 ca        1 MOL      0.180658
     87 C29        -1.2790    7.0650    1.2800 ca        1 MOL     -0.223617
     88 C30        -1.6990    5.9970   -0.9160 ca        1 MOL     -0.223617
     89 C31        -1.7560    8.2520    0.7470 ca        1 MOL     -0.218388
     90 C32        -2.1470    7.2250   -1.4210 ca        1 MOL     -0.218388
     91 C33        -2.1340    8.3630   -0.5760 ca        1 MOL      0.299199
     92 O14        -2.7120    9.4800   -0.9840 oh        1 MOL     -0.420115
     93 H37         1.4530    4.7760   -0.5740 hn        1 MOL      0.281192
     94 H38         0.8000    4.9120    2.3310 h1        1 MOL     -0.032988
     95 H39        -1.4140    4.0900    1.6150 hc        1 MOL      0.057296
     96 H40        -0.7710    3.9360   -0.0420 hc        1 MOL      0.057296
     97 H41        -0.9820    7.0700    2.3200 ha        1 MOL      0.152171
     98 H42        -1.7580    5.1330   -1.5590 ha        1 MOL      0.152171
     99 H43        -1.7120    9.1400    1.3660 ha        1 MOL      0.153318
    100 H44        -2.4580    7.3210   -2.4510 ha        1 MOL      0.153318
    101 H45        -3.0030    9.3320   -1.8870 ho        1 MOL      0.341340
    102 N10         0.1910    2.5730    3.0450 n         1 MOL     -0.371683
    103 C34         0.2780    1.2580    3.7170 c3        1 MOL      0.030013
    104 C35        -0.1910    0.0880    2.7820 c         1 MOL      0.225259
    105 O15         0.3530   -0.1400    1.7160 o         1 MOL     -0.228554
    106 C36         1.7000    0.8730    4.1980 c3        1 MOL      0.384150
    107 C37         1.6830   -0.3220    5.1570 c3        1 MOL     -0.246703
    108 C38         2.3500    2.1170    4.8770 c3        1 MOL     -0.391905
    109 C39         1.0680   -0.1810    6.5900 c3        1 MOL     -0.034912
    110 H46        -0.4980    3.2510    3.3280 hn        1 MOL      0.265599
    111 H47        -0.4110    1.2730    4.5620 h1        1 MOL      0.061745
    112 H48         2.3670    0.5310    3.4150 hc        1 MOL      0.016592
    113 H49         2.7510   -0.5160    5.2950 hc        1 MOL      0.065905
    114 H50         1.2710   -1.1970    4.6650 hc        1 MOL      0.065905
    115 H51         2.6460    2.7470    4.0360 hc        1 MOL      0.109219
    116 H52         1.6720    2.6660    5.5190 hc        1 MOL      0.109219
    117 H53         3.2570    1.7990    5.4070 hc        1 MOL      0.109219
    118 H54         1.4760    0.6490    7.1630 hc        1 MOL      0.010933
    119 H55        -0.0060    0.0250    6.5250 hc        1 MOL      0.010933
    120 H56         1.2810   -1.0930    7.1600 hc        1 MOL      0.010933
    121 N11        -1.2560   -0.6220    3.1730 n         1 MOL     -0.308971
    122 C40        -1.6130   -1.8890    2.5450 c3        1 MOL      0.110538
    123 C41        -2.8260   -1.7440    1.6360 c         1 MOL      0.371821
    124 O16        -3.3230   -2.7610    1.1250 o         1 MOL     -0.494862
    125 C42        -1.7920   -2.9610    3.6840 c3        1 MOL     -0.018687
    126 O17        -0.7060   -3.0110    4.5930 oh        1 MOL     -0.532769
    127 H57        -1.7260   -0.2510    3.9940 hn        1 MOL      0.239601
    128 H58        -0.7620   -2.2770    1.9740 h1        1 MOL      0.055579
    129 H59        -1.9150   -3.9110    3.1520 h1        1 MOL      0.105366
    130 H60        -2.6910   -2.6070    4.1890 h1        1 MOL      0.105366
    131 H61        -0.9050   -2.2930    5.1910 ho        1 MOL      0.368579
    132 N12        -3.3260   -0.5420    1.2520 n         1 MOL     -0.274817
    133 C43        -4.3980   -0.3980    0.2520 c3        1 MOL     -0.052953
    134 C44        -4.0160   -0.8550   -1.2230 c         1 MOL      0.561121
    135 O18        -2.8230   -0.8160   -1.5830 o         1 MOL     -0.591868
    136 C45        -4.8130    1.0720    0.2720 c3        1 MOL     -0.172388
    137 H62        -2.8300    0.2690    1.5870 hn        1 MOL      0.163236
    138 H63        -5.2480   -0.9880    0.5760 h1        1 MOL      0.129180
    139 H64        -5.7560    1.2160   -0.2610 hc        1 MOL      0.070309
    140 H65        -4.8970    1.4190    1.3020 hc        1 MOL      0.070309
    141 H66        -3.9370    1.5970   -0.1090 hc        1 MOL      0.070309
    142 N13        -4.9620   -1.1920   -2.1220 n         1 MOL     -0.530406
    143 C46        -6.3290   -1.5410   -1.8200 c3        1 MOL      0.281328
    144 C47        -7.3580   -0.3650   -1.9720 c         1 MOL      0.608440
    145 O19        -7.1130    0.6210   -2.5870 o         1 MOL     -0.608523
    146 C48        -6.8010   -2.6180   -2.8010 c3        1 MOL     -0.318524
    147 H67        -4.5710   -1.3400   -3.0510 hn        1 MOL      0.280737
    148 H68        -6.4220   -2.0050   -0.8430 h1        1 MOL      0.051522
    149 H69        -6.9810   -2.0940   -3.7440 hc        1 MOL      0.096887
    150 H70        -6.0020   -3.3530   -2.8370 hc        1 MOL      0.096887
    151 H71        -7.6240   -3.1770   -2.3800 hc        1 MOL      0.096887
    152 N14        -8.4790   -0.2630   -1.2860 n         1 MOL     -0.248345
    153 C49        -9.0780   -1.2360   -0.3700 c3        1 MOL     -0.399202
    154 C50        -9.5340   -0.5920    0.9050 c         1 MOL      0.484868
    155 O20        -9.5760   -1.2920    1.9200 o         1 MOL     -0.517395
    156 C51       -10.3090   -1.9960   -0.9260 c3        1 MOL      0.089991
    157 C52       -11.7000   -1.2510   -0.9980 c3        1 MOL     -0.173954
    158 C53       -11.6370   -0.1190   -2.0070 c         1 MOL      0.615604
    159 O21       -12.1260   -0.2740   -3.1270 o         1 MOL     -0.654986
    160 O22       -10.9970    0.9390   -1.7230 o         1 MOL     -0.654986
    161 H72        -9.0480    0.5520   -1.4330 hn        1 MOL      0.247316
    162 H73        -8.3690   -1.9940   -0.0340 h1        1 MOL      0.122205
    163 H74       -10.5410   -2.7010   -0.1260 hc        1 MOL      0.020420
    164 H75       -10.0800   -2.4550   -1.8860 hc        1 MOL      0.020420
    165 H76       -11.8670   -0.9490    0.0390 hc        1 MOL      0.050148
    166 H77       -12.5490   -1.9160   -1.1880 hc        1 MOL      0.050148
    167 N15        -9.8830    0.6990    0.9070 n         1 MOL     -0.281345
    168 C54       -10.1470    1.5060    2.0780 c3        1 MOL      0.030557
    169 H78        -9.3350    2.2200    2.2170 h1        1 MOL      0.033659
    170 H79       -11.0850    2.0450    1.9450 h1        1 MOL      0.033659
    171 H80       -10.2180    0.8630    2.9540 h1        1 MOL      0.033659
    172 H81        -9.8820    1.1650    0.0100 hn        1 MOL      0.224975
    173 Ca1         1.7820    0.4760   -0.6380 Ca        1 MOL      1.735527
    174 O23         1.8290    2.3110   -2.6240 oh        1 MOL     -0.804434
    175 H82         1.4320    3.1720   -2.6080 ho        1 MOL      0.408940
    176 H83         2.6870    2.4380   -3.0230 ho        1 MOL      0.408940
    177 O24        -0.3880   -1.4510   -0.8270 oh        1 MOL     -0.804434
    178 H84        -0.3510   -2.2540   -0.3010 ho        1 MOL      0.408940
    179 H85        -1.3190   -1.3210   -1.0040 ho        1 MOL      0.408940
    180 O25        -0.9340    1.3390   -0.4990 oh        1 MOL     -0.804434
    181 H86        -1.4370    1.7600   -1.1970 ho        1 MOL      0.408940
    182 H87        -1.6000    1.0480    0.1250 ho        1 MOL      0.408940
@<TRIPOS>BOND
     1    1    2 1   
     2    1    4 1   
     3    1    5 1   
     4    1    6 1   
     5    2    3 2   
     6    2    7 1   
     7    7    8 1   
     8    7   15 1   
     9    8    9 1   
    10    8   11 1   
    11    8   16 1   
    12    9   10 2   
    13    9   19 1   
    14   11   12 1   
    15   11   17 1   
    16   11   18 1   
    17   12   13 1   
    18   12   14 1   
    19   19   20 1   
    20   19   28 1   
    21   20   21 1   
    22   20   23 1   
    23   20   29 1   
    24   21   22 2   
    25   21   41 1   
    26   23   24 1   
    27   23   30 1   
    28   23   31 1   
    29   24   25 1   
    30   24   32 1   
    31   24   33 1   
    32   25   26 1   
    33   25   34 1   
    34   25   35 1   
    35   26   27 1   
    36   26   36 1   
    37   26   37 1   
    38   27   38 1   
    39   27   39 1   
    40   27   40 1   
    41   41   42 1   
    42   41   49 1   
    43   42   43 1   
    44   42   45 1   
    45   42   50 1   
    46   43   44 2   
    47   43   53 1   
    48   45   46 1   
    49   45   51 1   
    50   45   52 1   
    51   46   47 1   
    52   46   48 1   
    53   53   54 1   
    54   53   57 1   
    55   54   55 1   
    56   54   58 1   
    57   54   59 1   
    58   55   56 2   
    59   55   60 1   
    60   60   61 1   
    61   60   68 1   
    62   61   62 1   
    63   61   64 1   
    64   61   69 1   
    65   62   63 2   
    66   62   74 1   
    67   64   65 1   
    68   64   70 1   
    69   64   71 1   
    70   65   66 1   
    71   65   67 2   
    72   66   72 1   
    73   66   73 1   
    74   74   75 1   
    75   74   78 1   
    76   75   76 1   
    77   75   79 1   
    78   75   80 1   
    79   76   77 2   
    80   76   81 1   
    81   81   82 1   
    82   81   93 1   
    83   82   83 1   
    84   82   85 1   
    85   82   94 1   
    86   83   84 2   
    87   83  102 1   
    88   85   86 1   
    89   85   95 1   
    90   85   96 1   
    91   86   87 ar  
    92   86   88 ar  
    93   87   89 ar  
    94   87   97 1   
    95   88   90 ar  
    96   88   98 1   
    97   89   91 ar  
    98   89   99 1   
    99   90   91 ar  
   100   90  100 1   
   101   91   92 1   
   102   92  101 1   
   103  102  103 1   
   104  102  110 1   
   105  103  104 1   
   106  103  106 1   
   107  103  111 1   
   108  104  105 2   
   109  104  121 1   
   110  106  107 1   
   111  106  108 1   
   112  106  112 1   
   113  107  109 1   
   114  107  113 1   
   115  107  114 1   
   116  108  115 1   
   117  108  116 1   
   118  108  117 1   
   119  109  118 1   
   120  109  119 1   
   121  109  120 1   
   122  121  122 1   
   123  121  127 1   
   124  122  123 1   
   125  122  125 1   
   126  122  128 1   
   127  123  124 2   
   128  123  132 1   
   129  125  126 1   
   130  125  129 1   
   131  125  130 1   
   132  126  131 1   
   133  132  133 1   
   134  132  137 1   
   135  133  134 1   
   136  133  136 1   
   137  133  138 1   
   138  134  135 2   
   139  134  142 1   
   140  136  139 1   
   141  136  140 1   
   142  136  141 1   
   143  142  143 1   
   144  142  147 1   
   145  143  144 1   
   146  143  146 1   
   147  143  148 1   
   148  144  145 2   
   149  144  152 1   
   150  146  149 1   
   151  146  150 1   
   152  146  151 1   
   153  152  153 1   
   154  152  161 1   
   155  153  154 1   
   156  153  156 1   
   157  153  162 1   
   158  154  155 2   
   159  154  167 1   
   160  156  157 1   
   161  156  163 1   
   162  156  164 1   
   163  157  158 1   
   164  157  165 1   
   165  157  166 1   
   166  158  159 1   
   167  158  160 1   
   168  167  168 1   
   169  167  172 1   
   170  168  169 1   
   171  168  170 1   
   172  168  171 1   
   173  174  175 1   
   174  174  176 1   
   175  177  178 1   
   176  177  179 1   
   177  180  181 1   
   178  180  182 1   
@<TRIPOS>SUBSTRUCTURE
     1 MOL         1 TEMP              0 ****  ****    0 ROOT
