@<TRIPOS>MOLECULE
MOL
  184   179     1     0     0
SMALL
resp


@<TRIPOS>ATOM
      1 C1         -3.7830   -1.4940   -4.5070 c3        1 MOL     -0.449590
      2 C2         -5.1030   -1.1430   -3.9280 c         1 MOL      0.810806
      3 O1         -5.2490   -0.1620   -3.1890 o         1 MOL     -0.607505
      4 H1         -3.9180   -2.2370   -5.2930 hc        1 MOL      0.102740
      5 H2         -3.3210   -0.6010   -4.9270 hc        1 MOL      0.102740
      6 H3         -3.1410   -1.9040   -3.7270 hc        1 MOL      0.102740
      7 N1         -6.2050   -1.8920   -4.1580 n         1 MOL     -0.759756
      8 C3         -7.5250   -1.5090   -3.5750 c3        1 MOL      0.357768
      9 C4         -7.5250   -1.5570   -2.0320 c         1 MOL      0.594852
     10 O2         -6.9260   -2.4850   -1.4410 o         1 MOL     -0.619108
     11 C5         -8.6120   -2.4580   -4.1640 c3        1 MOL     -0.177402
     12 C6        -10.0770   -1.9890   -4.0200 c         1 MOL      0.708022
     13 O3        -10.2820   -0.9330   -3.4110 o         1 MOL     -0.729007
     14 O4        -10.9760   -2.7500   -4.4670 o         1 MOL     -0.729007
     15 H4         -6.1130   -2.7570   -4.6610 hn        1 MOL      0.331085
     16 H5         -7.8680   -0.5170   -3.8850 h1        1 MOL     -0.021519
     17 H6         -8.4510   -3.4370   -3.7260 hc        1 MOL     -0.006769
     18 H7         -8.4470   -2.5880   -5.2350 hc        1 MOL     -0.006769
     19 N2         -8.0700   -0.5300   -1.3740 n         1 MOL     -0.539626
     20 C7         -7.9990   -0.3460    0.0630 c3        1 MOL      0.257259
     21 C8         -6.6090   -0.2350    0.7700 c         1 MOL      0.707014
     22 O5         -5.6740    0.2380    0.1440 o         1 MOL     -0.556617
     23 C9         -8.9410    0.7920    0.3590 c3        1 MOL     -0.307314
     24 H8         -8.4970    0.1490   -1.9770 hn        1 MOL      0.306766
     25 H9         -8.5000   -1.1860    0.5420 h1        1 MOL      0.037448
     26 H10        -9.9660    0.5310    0.0720 hc        1 MOL      0.069747
     27 H11        -9.0550    0.9180    1.4400 hc        1 MOL      0.069747
     28 H12        -8.5510    1.7080   -0.0720 hc        1 MOL      0.069747
     29 N3         -6.5010   -0.7340    1.9860 n         1 MOL     -0.740366
     30 C10        -5.2780   -1.0550    2.6990 c3        1 MOL      0.210802
     31 C11        -4.8770    0.0190    3.6460 c         1 MOL      0.339773
     32 O6         -3.9860   -0.2460    4.4840 o         1 MOL     -0.552968
     33 C12        -5.2750   -2.5410    3.2040 c3        1 MOL     -0.014487
     34 C13        -6.4140   -3.0120    4.1770 c         1 MOL      0.685689
     35 O7         -6.3320   -4.1570    4.6530 o         1 MOL     -0.709766
     36 O8         -7.3720   -2.2500    4.4400 o         1 MOL     -0.709766
     37 H13        -7.3540   -1.0720    2.4130 hn        1 MOL      0.290449
     38 H14        -4.4690   -1.0430    1.9620 h1        1 MOL      0.063554
     39 H15        -4.3190   -2.7640    3.6720 hc        1 MOL     -0.021614
     40 H16        -5.3090   -3.2450    2.3790 hc        1 MOL     -0.021614
     41 N4         -5.4850    1.2090    3.6460 n         1 MOL     -0.129935
     42 C14        -5.4760    2.2430    4.7270 c3        1 MOL     -0.186562
     43 C15        -4.2420    3.1820    4.7190 c         1 MOL      0.509186
     44 O9         -3.9990    3.8650    5.7030 o         1 MOL     -0.557097
     45 H17        -6.0470    1.4490    2.8440 hn        1 MOL      0.194540
     46 H18        -5.5050    1.7710    5.7090 h1        1 MOL      0.119233
     47 H19        -6.3410    2.8950    4.7900 h1        1 MOL      0.119233
     48 N5         -3.4690    3.2480    3.6510 n         1 MOL     -0.343098
     49 C16        -2.1910    4.0040    3.4950 c3        1 MOL      0.073972
     50 C17        -2.0870    4.6170    2.0800 c         1 MOL      0.530552
     51 O10        -2.6410    4.1510    1.0560 o         1 MOL     -0.471393
     52 C18        -1.0000    3.1610    3.7980 c3        1 MOL     -0.193034
     53 C19        -0.7430    2.6050    5.1780 c         1 MOL      0.787884
     54 N6         -0.9990    1.3460    5.4930 n         1 MOL     -0.900150
     55 O11        -0.2690    3.3790    5.9860 o         1 MOL     -0.604709
     56 H20        -3.8150    2.6800    2.8800 hn        1 MOL      0.184086
     57 H21        -2.2960    4.8200    4.2070 h1        1 MOL      0.047367
     58 H22        -0.1110    3.7540    3.5790 hc        1 MOL      0.047644
     59 H23        -0.9450    2.3100    3.1120 hc        1 MOL      0.047644
     60 H24        -1.6080    0.8420    4.8530 hn        1 MOL      0.397964
     61 H25        -0.9390    1.0620    6.4590 hn        1 MOL      0.397964
     62 N7         -1.5060    5.7920    2.1180 n         1 MOL     -0.445873
     63 C20        -1.2770    6.6470    0.9600 c3        1 MOL     -0.159597
     64 C21        -0.0130    6.2680    0.1210 c         1 MOL      0.647974
     65 O12         0.7670    5.4180    0.5180 o         1 MOL     -0.504736
     66 H26        -1.0590    6.1190    2.9700 hn        1 MOL      0.325053
     67 H27        -1.0780    7.6670    1.2970 h1        1 MOL      0.097882
     68 H28        -2.1480    6.6200    0.3230 h1        1 MOL      0.097882
     69 N8          0.2370    6.8810   -1.0010 n         1 MOL     -0.454359
     70 C22         1.6030    7.1250   -1.5600 c3        1 MOL     -0.191694
     71 C23         2.3090    5.8610   -2.1450 c         1 MOL      0.426969
     72 O13         3.5790    5.9370   -2.2410 o         1 MOL     -0.561911
     73 C24         1.5180    8.2450   -2.5640 c3        1 MOL      0.460060
     74 C25         0.7260    7.9030   -3.8410 c3        1 MOL     -0.282139
     75 O14         1.1210    9.4210   -1.8860 oh        1 MOL     -0.618495
     76 H29        -0.4250    7.5930   -1.2540 hn        1 MOL      0.229984
     77 H30         2.2600    7.4760   -0.7730 h1        1 MOL      0.145783
     78 H31         2.5310    8.4580   -2.9180 h1        1 MOL      0.032366
     79 H32         0.1710    9.3160   -1.7690 ho        1 MOL      0.367379
     80 H33         1.3690    7.3640   -4.5320 hc        1 MOL      0.061167
     81 H34        -0.1720    7.3240   -3.6480 hc        1 MOL      0.061167
     82 H35         0.5160    8.8780   -4.2930 hc        1 MOL      0.061167
     83 N9          1.6200    4.7790   -2.5060 n         1 MOL     -0.138916
     84 C26         2.0830    3.4370   -2.8080 c3        1 MOL     -0.015597
     85 C27         1.6780    2.3720   -1.8370 c         1 MOL      0.555521
     86 O15         0.5710    2.4210   -1.3180 o         1 MOL     -0.472592
     87 C28         1.9340    3.1140   -4.3040 c3        1 MOL      0.247681
     88 C29         0.5320    2.7440   -4.7620 c3        1 MOL      0.139049
     89 C30         2.5290    4.1630   -5.2600 c3        1 MOL     -0.407476
     90 C31        -0.5150    3.8900   -4.7990 c3        1 MOL     -0.116636
     91 H36         0.6080    4.8260   -2.4020 hn        1 MOL      0.161976
     92 H37         3.1500    3.5380   -2.6240 h1        1 MOL      0.038617
     93 H38         2.5310    2.2060   -4.3760 hc        1 MOL     -0.063241
     94 H39         0.1620    1.8450   -4.2550 hc        1 MOL     -0.026467
     95 H40         0.6780    2.4120   -5.7890 hc        1 MOL     -0.026467
     96 H41         2.1740    3.8590   -6.2450 hc        1 MOL      0.090668
     97 H42         2.1700    5.1610   -5.0070 hc        1 MOL      0.090668
     98 H43         3.6090    4.1380   -5.1840 hc        1 MOL      0.090668
     99 H44        -0.0140    4.6960   -5.3180 hc        1 MOL      0.025373
    100 H45        -1.3750    3.5640   -5.3960 hc        1 MOL      0.025373
    101 H46        -0.9490    4.1490   -3.8330 hc        1 MOL      0.025373
    102 N10         2.5620    1.3850   -1.6760 n         1 MOL     -0.589216
    103 C32         2.3180    0.2310   -0.7700 c3        1 MOL      0.020350
    104 C33         3.5520   -0.3040    0.0130 c         1 MOL      0.643023
    105 O16         3.6880   -1.5160    0.2000 o         1 MOL     -0.629199
    106 C34         1.7360   -0.9200   -1.5900 c3        1 MOL      0.065985
    107 C35         0.7330   -1.8100   -0.8940 c         1 MOL      0.643750
    108 O17         0.4280   -2.8160   -1.5500 o         1 MOL     -0.717195
    109 O18         0.2770   -1.5300    0.2500 o         1 MOL     -0.717195
    110 H47         3.4380    1.4860   -2.1660 hn        1 MOL      0.306732
    111 H48         1.6070    0.5060   -0.0000 h1        1 MOL      0.095354
    112 H49         2.4660   -1.6300   -1.9850 hc        1 MOL      0.003192
    113 H50         1.2250   -0.5680   -2.4810 hc        1 MOL      0.003192
    114 N11         4.4840    0.6630    0.1850 n         1 MOL     -0.514865
    115 C36         5.7160    0.3920    0.9330 c3        1 MOL      0.090869
    116 C37         6.5630   -0.7090    0.1620 c         1 MOL      0.303080
    117 O19         6.7660   -0.4900   -0.9790 o         1 MOL     -0.487215
    118 C38         6.4960    1.6670    1.0670 c3        1 MOL     -0.124643
    119 C39         7.6350    1.5380    1.9980 ca        1 MOL      0.069094
    120 C40         7.4370    1.5780    3.3600 ca        1 MOL     -0.150435
    121 C41         8.8540    1.1490    1.5340 ca        1 MOL     -0.150435
    122 C42         8.5580    1.2970    4.2370 ca        1 MOL     -0.132178
    123 C43         9.9660    0.8510    2.3340 ca        1 MOL     -0.132178
    124 C44         9.7980    0.8320    3.7010 ca        1 MOL     -0.093182
    125 H51         4.2300    1.6150   -0.0220 hn        1 MOL      0.302274
    126 H52         5.3850    0.1410    1.9340 h1        1 MOL      0.081212
    127 H53         5.8360    2.4670    1.3970 hc        1 MOL      0.079409
    128 H54         6.9050    2.1020    0.1480 hc        1 MOL      0.079409
    129 H55         6.4610    1.8520    3.7240 ha        1 MOL      0.121096
    130 H56         9.0280    0.9660    0.4800 ha        1 MOL      0.121096
    131 H57         8.3560    1.1540    5.2940 ha        1 MOL      0.115336
    132 H58        10.9030    0.5140    1.9160 ha        1 MOL      0.115336
    133 H59        10.6210    0.5990    4.3640 ha        1 MOL      0.099545
    134 N12         7.0630   -1.8300    0.7560 n         1 MOL      0.017341
    135 C45         7.6900   -2.8920   -0.0310 c3        1 MOL      0.055881
    136 C46         6.9690   -3.3950   -1.2760 c         1 MOL      0.286431
    137 O20         7.6440   -3.6960   -2.2610 o         1 MOL     -0.522736
    138 C47         8.0640   -3.9890    1.0440 c3        1 MOL     -0.019432
    139 C48         8.0810   -3.1380    2.3800 c3        1 MOL      0.037435
    140 C49         6.9980   -2.1200    2.1320 c3        1 MOL     -0.029588
    141 H60         8.5910   -2.3620   -0.3260 h1        1 MOL      0.030421
    142 H61         7.2180   -4.6790    1.0580 hc        1 MOL      0.010325
    143 H62         9.0680   -4.4020    0.9570 hc        1 MOL      0.010325
    144 H63         8.0330   -3.6860    3.3120 hc        1 MOL      0.004793
    145 H64         9.0280   -2.5950    2.3710 hc        1 MOL      0.004793
    146 H65         6.0570   -2.6060    2.4050 h1        1 MOL      0.011692
    147 H66         7.0440   -1.2140    2.7340 h1        1 MOL      0.011692
    148 N13         5.6390   -3.4570   -1.2080 n         1 MOL     -0.007840
    149 C50         4.8550   -4.3770   -2.0260 c3        1 MOL     -0.364220
    150 C51         4.4680   -3.7320   -3.3390 c         1 MOL      0.521478
    151 O21         3.7620   -4.3560   -4.1640 o         1 MOL     -0.555647
    152 C52         3.6670   -4.7360   -1.1650 c3        1 MOL      0.301933
    153 C53         4.0730   -5.2380    0.1540 c3        1 MOL     -0.054492
    154 C54         2.8060   -5.6160    0.9150 c         1 MOL      0.638410
    155 O22         2.7690   -6.7930    1.2730 o         1 MOL     -0.721440
    156 O23         1.9080   -4.7630    1.0440 o         1 MOL     -0.721440
    157 H67         5.1860   -3.0330   -0.4160 hn        1 MOL      0.284871
    158 H68         5.3940   -5.3120   -2.2000 h1        1 MOL      0.132095
    159 H69         3.0690   -5.4360   -1.7470 hc        1 MOL     -0.064299
    160 H70         3.1280   -3.8060   -1.0040 hc        1 MOL     -0.064299
    161 H71         4.6610   -4.4930    0.7130 hc        1 MOL     -0.017427
    162 H72         4.6820   -6.1190   -0.0380 hc        1 MOL     -0.017427
    163 N14         4.8010   -2.4550   -3.4880 n         1 MOL     -0.135039
    164 C55         4.7330   -1.7540   -4.7700 c3        1 MOL     -0.339791
    165 H73         5.1500   -0.7530   -4.6600 h1        1 MOL      0.120832
    166 H74         5.3050   -2.3050   -5.5170 h1        1 MOL      0.120832
    167 H75         3.6930   -1.6810   -5.0900 h1        1 MOL      0.120832
    168 H76         5.2280   -2.0560   -2.6670 hn        1 MOL      0.193748
    169 Ca1        -0.4580   -4.1830    0.4750 Ca        1 MOL      1.824672
    170 O24        -3.0750   -4.3050    1.0720 oh        1 MOL     -0.907644
    171 H77        -3.6510   -3.8060    0.4890 ho        1 MOL      0.448204
    172 H78        -3.6780   -4.8510    1.5860 ho        1 MOL      0.448204
    173 O25        -0.7960   -3.0690    2.8130 oh        1 MOL     -0.907644
    174 O26        -0.9060   -6.1130    2.0740 oh        1 MOL     -0.907644
    175 H79        -1.0040   -3.4350    3.6680 ho        1 MOL      0.448204
    176 H80        -1.3760   -6.2040    2.9080 ho        1 MOL      0.448204
    177 H81        -0.8040   -2.1210    2.9540 ho        1 MOL      0.448204
    178 H82        -0.3700   -6.9050    2.0160 ho        1 MOL      0.448204
    179 O27        -2.3520   -4.0370   -1.6870 oh        1 MOL     -0.907644
    180 H83        -3.2930   -3.8650   -1.6760 ho        1 MOL      0.448204
    181 H84        -2.1590   -4.2840   -2.5930 ho        1 MOL      0.448204
    182 O28         0.2740   -6.0430   -1.0820 oh        1 MOL     -0.907644
    183 H85         0.4750   -5.9000   -2.0050 ho        1 MOL      0.448204
    184 H86         0.5280   -6.9540   -0.9120 ho        1 MOL      0.448204
@<TRIPOS>BOND
     1    1    2 1   
     2    1    4 1   
     3    1    5 1   
     4    1    6 1   
     5    2    3 2   
     6    2    7 1   
     7    7    8 1   
     8    7   15 1   
     9    8    9 1   
    10    8   11 1   
    11    8   16 1   
    12    9   10 2   
    13    9   19 1   
    14   11   12 1   
    15   11   17 1   
    16   11   18 1   
    17   12   13 1   
    18   12   14 1   
    19   19   20 1   
    20   19   24 1   
    21   20   21 1   
    22   20   23 1   
    23   20   25 1   
    24   21   22 2   
    25   21   29 1   
    26   23   26 1   
    27   23   27 1   
    28   23   28 1   
    29   29   30 1   
    30   29   37 1   
    31   30   31 1   
    32   30   33 1   
    33   30   38 1   
    34   31   32 2   
    35   31   41 1   
    36   33   34 1   
    37   33   39 1   
    38   33   40 1   
    39   34   35 1   
    40   34   36 1   
    41   41   42 1   
    42   41   45 1   
    43   42   43 1   
    44   42   46 1   
    45   42   47 1   
    46   43   44 2   
    47   43   48 1   
    48   48   49 1   
    49   48   56 1   
    50   49   50 1   
    51   49   52 1   
    52   49   57 1   
    53   50   51 2   
    54   50   62 1   
    55   52   53 1   
    56   52   58 1   
    57   52   59 1   
    58   53   54 1   
    59   53   55 2   
    60   54   60 1   
    61   54   61 1   
    62   62   63 1   
    63   62   66 1   
    64   63   64 1   
    65   63   67 1   
    66   63   68 1   
    67   64   65 2   
    68   64   69 1   
    69   69   70 1   
    70   69   76 1   
    71   70   71 1   
    72   70   73 1   
    73   70   77 1   
    74   71   72 2   
    75   71   83 1   
    76   73   74 1   
    77   73   75 1   
    78   73   78 1   
    79   74   80 1   
    80   74   81 1   
    81   74   82 1   
    82   75   79 1   
    83   83   84 1   
    84   83   91 1   
    85   84   85 1   
    86   84   87 1   
    87   84   92 1   
    88   85   86 2   
    89   85  102 1   
    90   87   88 1   
    91   87   89 1   
    92   87   93 1   
    93   88   90 1   
    94   88   94 1   
    95   88   95 1   
    96   89   96 1   
    97   89   97 1   
    98   89   98 1   
    99   90   99 1   
   100   90  100 1   
   101   90  101 1   
   102  102  103 1   
   103  102  110 1   
   104  103  104 1   
   105  103  106 1   
   106  103  111 1   
   107  104  105 2   
   108  104  114 1   
   109  106  107 1   
   110  106  112 1   
   111  106  113 1   
   112  107  108 1   
   113  107  109 1   
   114  114  115 1   
   115  114  125 1   
   116  115  116 1   
   117  115  118 1   
   118  115  126 1   
   119  116  117 2   
   120  116  134 1   
   121  118  119 1   
   122  118  127 1   
   123  118  128 1   
   124  119  120 ar  
   125  119  121 ar  
   126  120  122 ar  
   127  120  129 1   
   128  121  123 ar  
   129  121  130 1   
   130  122  124 ar  
   131  122  131 1   
   132  123  124 ar  
   133  123  132 1   
   134  124  133 1   
   135  134  135 1   
   136  134  140 1   
   137  135  136 1   
   138  135  138 1   
   139  135  141 1   
   140  136  137 2   
   141  136  148 1   
   142  138  139 1   
   143  138  142 1   
   144  138  143 1   
   145  139  140 1   
   146  139  144 1   
   147  139  145 1   
   148  140  146 1   
   149  140  147 1   
   150  148  149 1   
   151  148  157 1   
   152  149  150 1   
   153  149  152 1   
   154  149  158 1   
   155  150  151 2   
   156  150  163 1   
   157  152  153 1   
   158  152  159 1   
   159  152  160 1   
   160  153  154 1   
   161  153  161 1   
   162  153  162 1   
   163  154  155 1   
   164  154  156 1   
   165  163  164 1   
   166  163  168 1   
   167  164  165 1   
   168  164  166 1   
   169  164  167 1   
   170  170  171 1   
   171  170  172 1   
   172  173  175 1   
   173  173  177 1   
   174  174  176 1   
   175  174  178 1   
   176  179  180 1   
   177  179  181 1   
   178  182  183 1   
   179  182  184 1   
@<TRIPOS>SUBSTRUCTURE
     1 MOL         1 TEMP              0 ****  ****    0 ROOT
