@<TRIPOS>MOLECULE
MOL
  188   182     1     0     0
SMALL
resp


@<TRIPOS>ATOM
      1 C1         -6.4930   -0.9190    3.0320 c3        1 MOL     -0.362875
      2 C2         -6.7060   -1.4900    1.6320 c         1 MOL      0.687906
      3 O1         -5.8880   -1.1060    0.7840 o         1 MOL     -0.580210
      4 H1         -7.2990   -1.2530    3.6860 hc        1 MOL      0.087226
      5 H2         -5.5390   -1.2670    3.4250 hc        1 MOL      0.087226
      6 H3         -6.4930    0.1700    2.9850 hc        1 MOL      0.087226
      7 N1         -7.8340   -2.0800    1.2580 n         1 MOL     -0.521134
      8 C3         -8.1670   -2.2950   -0.1240 c3        1 MOL     -0.027526
      9 C4         -8.2510   -1.0770   -1.0250 c         1 MOL      0.633075
     10 O2         -7.9310   -1.0820   -2.2010 o         1 MOL     -0.520697
     11 C5         -7.4120   -3.5310   -0.7490 c3        1 MOL     -0.181883
     12 C6         -7.7530   -4.9370   -0.1820 c         1 MOL      0.697787
     13 O3         -7.1320   -5.8600   -0.7940 o         1 MOL     -0.656247
     14 O4         -8.6640   -5.1820    0.6220 o         1 MOL     -0.656247
     15 H4         -8.5270   -2.3870    1.9260 hn        1 MOL      0.312803
     16 H5         -9.1830   -2.7030   -0.0740 h1        1 MOL      0.066110
     17 H6         -6.3330   -3.3920   -0.7310 hc        1 MOL      0.075178
     18 H7         -7.6990   -3.6900   -1.7850 hc        1 MOL      0.075178
     19 N2         -8.6970    0.0440   -0.4240 n         1 MOL     -0.515154
     20 C7         -8.7300    1.4100   -0.9310 c3        1 MOL     -0.113462
     21 C8         -7.3050    2.0130   -1.1540 c         1 MOL      0.612213
     22 O5         -7.2470    3.1500   -1.6020 o         1 MOL     -0.601330
     23 C9         -9.5530    2.2470    0.0350 c3        1 MOL      0.082223
     24 C10        -9.1260    2.3840    1.4790 c3        1 MOL      0.040413
     25 C11       -10.0540    3.3000    2.3090 c3        1 MOL     -0.090139
     26 C12       -10.0940    4.7830    1.9370 c3        1 MOL      0.047781
     27 N3        -10.5170    5.6510    3.0290 n4        1 MOL     -0.150528
     28 H8         -9.0910   -0.1620    0.4850 hn        1 MOL      0.269626
     29 H9         -9.2380    1.4360   -1.8920 h1        1 MOL      0.148322
     30 H10       -10.5990    1.9480    0.0130 hc        1 MOL      0.000576
     31 H11        -9.6140    3.2490   -0.3660 hc        1 MOL      0.000576
     32 H12        -8.1540    2.8730    1.4840 hc        1 MOL      0.004200
     33 H13        -9.0000    1.3660    1.8510 hc        1 MOL      0.004200
     34 H14        -9.8260    3.1450    3.3630 hc        1 MOL      0.034359
     35 H15       -11.0640    2.9390    2.1430 hc        1 MOL      0.034359
     36 H16       -10.7010    4.9470    1.0490 hx        1 MOL      0.069947
     37 H17        -9.0470    4.9890    1.7060 hx        1 MOL      0.069947
     38 H18       -10.4690    6.6260    2.7870 hn        1 MOL      0.200361
     39 H19       -11.4430    5.3680    3.3060 hn        1 MOL      0.200361
     40 H20       -10.0530    5.3740    3.8860 hn        1 MOL      0.200361
     41 N4         -6.2390    1.3210   -0.8550 n         1 MOL     -0.323650
     42 C13        -4.8890    1.8950   -0.8970 c3        1 MOL     -0.101327
     43 C14        -4.4440    1.8770   -2.4020 c         1 MOL      0.600047
     44 O6         -4.9590    1.0520   -3.1910 o         1 MOL     -0.447678
     45 C15        -4.0230    1.0420    0.0320 c3        1 MOL     -0.015063
     46 C16        -2.5550    1.3280    0.0010 c         1 MOL      0.689426
     47 O7         -2.0860    2.0730    0.8620 o         1 MOL     -0.771054
     48 O8         -1.7790    0.9570   -0.8570 o         1 MOL     -0.771054
     49 H21        -6.5070    0.3790   -0.6090 hn        1 MOL      0.214347
     50 H22        -4.8750    2.9050   -0.4850 h1        1 MOL      0.054744
     51 H23        -4.0760    0.0090   -0.2980 hc        1 MOL      0.060984
     52 H24        -4.3470    1.2090    1.0630 hc        1 MOL      0.060984
     53 N5         -3.5110    2.7650   -2.8140 n         1 MOL     -0.545663
     54 C17        -3.0000    2.8340   -4.2020 c3        1 MOL     -0.015661
     55 C18        -2.0250    1.7240   -4.5730 c         1 MOL      0.478801
     56 O9         -1.8150    1.6160   -5.7900 o         1 MOL     -0.585295
     57 H25        -3.1720    3.4220   -2.1280 hn        1 MOL      0.308941
     58 H26        -2.5150    3.7670   -4.4900 h1        1 MOL      0.095311
     59 H27        -3.8750    2.7270   -4.8480 h1        1 MOL      0.095311
     60 N6         -1.5490    0.9120   -3.6960 n         1 MOL     -0.206395
     61 C19        -0.8600   -0.4150   -3.9180 c3        1 MOL     -0.063992
     62 C20        -1.4020   -1.5490   -3.0580 c         1 MOL      0.356797
     63 O10        -0.7160   -2.5540   -2.7870 o         1 MOL     -0.402406
     64 C21         0.6920   -0.3680   -4.1090 c3        1 MOL     -0.233411
     65 C22         1.4020   -0.0300   -2.8130 c         1 MOL      0.453793
     66 N7          2.6670   -0.3040   -2.7740 n         1 MOL     -0.635864
     67 O11         0.9160    0.5360   -1.8520 o         1 MOL     -0.433495
     68 H28        -1.8250    1.1030   -2.7370 hn        1 MOL      0.218183
     69 H29        -1.2150   -0.8350   -4.8550 h1        1 MOL      0.146335
     70 H30         0.8270    0.4290   -4.8400 hc        1 MOL      0.119346
     71 H31         1.0250   -1.3030   -4.5410 hc        1 MOL      0.119346
     72 H32         3.1970   -0.5090   -3.6090 hn        1 MOL      0.329915
     73 H33         3.0520   -0.2090   -1.8410 hn        1 MOL      0.329915
     74 N8         -2.6920   -1.4940   -2.6680 n         1 MOL     -0.167760
     75 C23        -3.2940   -2.5270   -1.8360 c3        1 MOL     -0.178829
     76 C24        -2.5810   -2.8510   -0.4590 c         1 MOL      0.651871
     77 O12        -2.6570   -3.9530    0.0220 o         1 MOL     -0.510405
     78 H34        -3.2600   -0.7240   -2.9690 hn        1 MOL      0.161766
     79 H35        -3.2520   -3.4890   -2.3480 h1        1 MOL      0.106964
     80 H36        -4.3330   -2.2410   -1.6690 h1        1 MOL      0.106964
     81 N9         -1.9330   -1.8150    0.1460 n         1 MOL     -0.502997
     82 C25        -1.1810   -1.9420    1.4040 c3        1 MOL     -0.081654
     83 C26         0.0990   -1.1160    1.3970 c         1 MOL      0.626671
     84 O13         0.2310    0.0230    1.0170 o         1 MOL     -0.586387
     85 C27        -2.0950   -1.6270    2.6060 c3        1 MOL     -0.129472
     86 C28        -1.4310   -1.1790    3.8260 ca        1 MOL      0.090519
     87 C29        -1.1560   -2.0630    4.8560 ca        1 MOL     -0.143733
     88 C30        -1.1780    0.1930    4.0210 ca        1 MOL     -0.143733
     89 C31        -0.6370   -1.6110    6.0630 ca        1 MOL     -0.323983
     90 C32        -0.6340    0.6650    5.2990 ca        1 MOL     -0.323983
     91 C33        -0.4400   -0.2350    6.3170 ca        1 MOL      0.367793
     92 O14         0.0580    0.2140    7.4860 oh        1 MOL     -0.453763
     93 H37        -1.9620   -0.9230   -0.3180 hn        1 MOL      0.311011
     94 H38        -0.9060   -2.9820    1.5690 h1        1 MOL      0.096216
     95 H39        -2.6220   -2.5340    2.9020 hc        1 MOL      0.100574
     96 H40        -2.7020   -0.7650    2.3170 hc        1 MOL      0.100574
     97 H41        -1.3560   -3.1240    4.7920 ha        1 MOL      0.149629
     98 H42        -1.3560    0.9190    3.2410 ha        1 MOL      0.149629
     99 H43        -0.4280   -2.2940    6.8700 ha        1 MOL      0.161899
    100 H44        -0.4430    1.7210    5.4290 ha        1 MOL      0.161899
    101 H45         0.2640    1.1370    7.3420 ho        1 MOL      0.330073
    102 N10         1.1410   -1.8040    1.8970 n         1 MOL     -0.485819
    103 C34         2.5950   -1.4920    1.7070 c3        1 MOL     -0.185765
    104 C35         3.0650   -1.7850    0.3040 c         1 MOL      0.365409
    105 O15         3.8110   -1.0030   -0.2980 o         1 MOL     -0.571220
    106 C36         3.5370   -2.1110    2.7950 c3        1 MOL      0.213434
    107 C37         3.0380   -1.6100    4.1220 c3        1 MOL      0.114597
    108 C38         4.9820   -1.8330    2.5570 c3        1 MOL     -0.297190
    109 C39         3.8460   -2.0130    5.3790 c3        1 MOL     -0.177140
    110 H46         0.8900   -2.7470    2.1470 hn        1 MOL      0.283411
    111 H47         2.8210   -0.4310    1.7850 h1        1 MOL      0.183695
    112 H48         3.3850   -3.1880    2.6980 hc        1 MOL     -0.035358
    113 H49         2.0130   -1.9730    4.2440 hc        1 MOL     -0.012388
    114 H50         2.9230   -0.5260    4.1440 hc        1 MOL     -0.012388
    115 H51         5.3040   -2.2890    1.6150 hc        1 MOL      0.071756
    116 H52         5.1690   -0.7630    2.5580 hc        1 MOL      0.071756
    117 H53         5.6090   -2.4080    3.2340 hc        1 MOL      0.071756
    118 H54         3.9920   -3.0900    5.3750 hc        1 MOL      0.045517
    119 H55         4.8110   -1.4980    5.4170 hc        1 MOL      0.045517
    120 H56         3.3270   -1.7970    6.3170 hc        1 MOL      0.045517
    121 N11         2.7210   -2.9360   -0.2080 n         1 MOL      0.083159
    122 C40         2.9100   -3.3700   -1.6100 c3        1 MOL     -0.413604
    123 C41         4.3940   -3.5300   -1.9710 c         1 MOL      0.499363
    124 O16         4.7260   -3.4210   -3.1430 o         1 MOL     -0.530630
    125 C42         2.1120   -4.6380   -1.8640 c3        1 MOL      0.221948
    126 O17         0.7730   -4.4090   -1.4750 oh        1 MOL     -0.555320
    127 H57         2.2350   -3.5490    0.4390 hn        1 MOL      0.181951
    128 H58         2.5800   -2.5840   -2.2860 h1        1 MOL      0.226832
    129 H59         2.4930   -5.4340   -1.2350 h1        1 MOL      0.048955
    130 H60         2.2120   -4.8750   -2.9200 h1        1 MOL      0.048955
    131 H61         0.3850   -3.6020   -1.8240 ho        1 MOL      0.305960
    132 N12         5.2390   -3.8400   -0.9970 n         1 MOL     -0.233076
    133 C43         6.7440   -4.0180   -0.9960 c3        1 MOL      0.029561
    134 C44         7.5910   -2.7790   -1.3350 c         1 MOL      0.636901
    135 O18         8.7210   -3.0350   -1.6790 o         1 MOL     -0.516493
    136 C45         6.9660   -5.2140   -1.9250 c3        1 MOL     -0.320139
    137 H62         4.7990   -3.9640   -0.0970 hn        1 MOL      0.158246
    138 H63         7.0170   -4.2670    0.0210 h1        1 MOL      0.088836
    139 H64         8.0110   -5.5200   -1.8220 hc        1 MOL      0.103727
    140 H65         6.2570   -6.0280   -1.7630 hc        1 MOL      0.103727
    141 H66         6.9520   -4.9270   -2.9760 hc        1 MOL      0.103727
    142 N13         7.1070   -1.4950   -1.0860 n         1 MOL     -0.646599
    143 C46         7.7410   -0.2840   -1.4620 c3        1 MOL      0.359731
    144 C47         8.0730    0.6900   -0.3170 c         1 MOL      0.342826
    145 O19         7.2390    0.9910    0.5670 o         1 MOL     -0.429455
    146 C48         6.7630    0.4130   -2.4550 c3        1 MOL     -0.308604
    147 H67         6.1470   -1.3990   -0.7740 hn        1 MOL      0.270803
    148 H68         8.7270   -0.4590   -1.8800 h1        1 MOL     -0.009379
    149 H69         7.2060    1.3410   -2.8200 hc        1 MOL      0.088964
    150 H70         6.7270   -0.2470   -3.3170 hc        1 MOL      0.088964
    151 H71         5.7730    0.5820   -2.0250 hc        1 MOL      0.088964
    152 N14         9.3170    1.2620   -0.3870 n         1 MOL     -0.257754
    153 C49         9.9250    2.2410    0.4450 c3        1 MOL     -0.102627
    154 C50        10.1320    1.7020    1.8740 c         1 MOL      0.486059
    155 O20         9.8710    2.3770    2.8390 o         1 MOL     -0.473112
    156 C51         9.0530    3.5200    0.4240 c3        1 MOL      0.265217
    157 C52         8.9470    4.0280   -0.9610 c3        1 MOL     -0.147840
    158 C53         8.4390    5.4590   -0.8760 c         1 MOL      0.735754
    159 O21         7.1940    5.5380   -0.6690 o         1 MOL     -0.697657
    160 O22         9.1640    6.4060   -1.0480 o         1 MOL     -0.697657
    161 H72         9.7970    0.9480   -1.2110 hn        1 MOL      0.228854
    162 H73        10.9030    2.4950    0.0180 h1        1 MOL      0.077652
    163 H74         9.5240    4.2430    1.0940 hc        1 MOL     -0.051963
    164 H75         8.0430    3.3570    0.8100 hc        1 MOL     -0.051963
    165 H76         8.3110    3.4140   -1.6110 hc        1 MOL     -0.026172
    166 H77         9.8930    4.0000   -1.5000 hc        1 MOL     -0.026172
    167 N15        10.4790    0.3760    1.9670 n         1 MOL     -0.366606
    168 C54        10.4010   -0.4650    3.1680 c3        1 MOL     -0.144505
    169 H78         9.3580   -0.5860    3.4600 h1        1 MOL      0.091338
    170 H79        10.8340   -1.4430    2.9560 h1        1 MOL      0.091338
    171 H80        10.9530    0.0090    3.9800 h1        1 MOL      0.091338
    172 H81        10.5180   -0.0660    1.0670 hn        1 MOL      0.214979
    173 Ca1         0.2380    2.4310   -0.1210 Ca        1 MOL      1.756293
    174 O23        -1.4730    4.3160   -1.0200 oh        1 MOL     -0.837912
    175 H82        -2.0470    4.5890   -0.3090 ho        1 MOL      0.418089
    176 H83        -1.6170    4.9490   -1.7120 ho        1 MOL      0.418089
    177 O24         1.5320    4.7170    0.3420 oh        1 MOL     -0.837912
    178 H84         1.6600    5.4930   -0.2100 ho        1 MOL      0.418089
    179 H85         2.3230    4.6750    0.8790 ho        1 MOL      0.418089
    180 O25         2.8770    2.2270    0.0540 oh        1 MOL     -0.837912
    181 H86         3.3620    2.4450   -0.7380 ho        1 MOL      0.418089
    182 H87         3.5300    2.2010    0.7520 ho        1 MOL      0.418089
    183 O26         0.5060    2.7750    2.5170 oh        1 MOL     -0.837912
    184 H88         0.0510    3.1020    3.2900 ho        1 MOL      0.418089
    185 H89         1.3870    3.1690    2.5600 ho        1 MOL      0.418089
    186 O27         0.8270    3.4320   -2.7900 oh        1 MOL     -0.837912
    187 H90         1.7580    3.3500   -3.0010 ho        1 MOL      0.418089
    188 H91         0.4640    3.9290   -3.5190 ho        1 MOL      0.418089
@<TRIPOS>BOND
     1    1    2 1   
     2    1    4 1   
     3    1    5 1   
     4    1    6 1   
     5    2    3 2   
     6    2    7 1   
     7    7    8 1   
     8    7   15 1   
     9    8    9 1   
    10    8   11 1   
    11    8   16 1   
    12    9   10 2   
    13    9   19 1   
    14   11   12 1   
    15   11   17 1   
    16   11   18 1   
    17   12   13 1   
    18   12   14 1   
    19   19   20 1   
    20   19   28 1   
    21   20   21 1   
    22   20   23 1   
    23   20   29 1   
    24   21   22 2   
    25   21   41 1   
    26   23   24 1   
    27   23   30 1   
    28   23   31 1   
    29   24   25 1   
    30   24   32 1   
    31   24   33 1   
    32   25   26 1   
    33   25   34 1   
    34   25   35 1   
    35   26   27 1   
    36   26   36 1   
    37   26   37 1   
    38   27   38 1   
    39   27   39 1   
    40   27   40 1   
    41   41   42 1   
    42   41   49 1   
    43   42   43 1   
    44   42   45 1   
    45   42   50 1   
    46   43   44 2   
    47   43   53 1   
    48   45   46 1   
    49   45   51 1   
    50   45   52 1   
    51   46   47 1   
    52   46   48 1   
    53   53   54 1   
    54   53   57 1   
    55   54   55 1   
    56   54   58 1   
    57   54   59 1   
    58   55   56 2   
    59   55   60 1   
    60   60   61 1   
    61   60   68 1   
    62   61   62 1   
    63   61   64 1   
    64   61   69 1   
    65   62   63 2   
    66   62   74 1   
    67   64   65 1   
    68   64   70 1   
    69   64   71 1   
    70   65   66 1   
    71   65   67 2   
    72   66   72 1   
    73   66   73 1   
    74   74   75 1   
    75   74   78 1   
    76   75   76 1   
    77   75   79 1   
    78   75   80 1   
    79   76   77 2   
    80   76   81 1   
    81   81   82 1   
    82   81   93 1   
    83   82   83 1   
    84   82   85 1   
    85   82   94 1   
    86   83   84 2   
    87   83  102 1   
    88   85   86 1   
    89   85   95 1   
    90   85   96 1   
    91   86   87 ar  
    92   86   88 ar  
    93   87   89 ar  
    94   87   97 1   
    95   88   90 ar  
    96   88   98 1   
    97   89   91 ar  
    98   89   99 1   
    99   90   91 ar  
   100   90  100 1   
   101   91   92 1   
   102   92  101 1   
   103  102  103 1   
   104  102  110 1   
   105  103  104 1   
   106  103  106 1   
   107  103  111 1   
   108  104  105 2   
   109  104  121 1   
   110  106  107 1   
   111  106  108 1   
   112  106  112 1   
   113  107  109 1   
   114  107  113 1   
   115  107  114 1   
   116  108  115 1   
   117  108  116 1   
   118  108  117 1   
   119  109  118 1   
   120  109  119 1   
   121  109  120 1   
   122  121  122 1   
   123  121  127 1   
   124  122  123 1   
   125  122  125 1   
   126  122  128 1   
   127  123  124 2   
   128  123  132 1   
   129  125  126 1   
   130  125  129 1   
   131  125  130 1   
   132  126  131 1   
   133  132  133 1   
   134  132  137 1   
   135  133  134 1   
   136  133  136 1   
   137  133  138 1   
   138  134  135 2   
   139  134  142 1   
   140  136  139 1   
   141  136  140 1   
   142  136  141 1   
   143  142  143 1   
   144  142  147 1   
   145  143  144 1   
   146  143  146 1   
   147  143  148 1   
   148  144  145 2   
   149  144  152 1   
   150  146  149 1   
   151  146  150 1   
   152  146  151 1   
   153  152  153 1   
   154  152  161 1   
   155  153  154 1   
   156  153  156 1   
   157  153  162 1   
   158  154  155 2   
   159  154  167 1   
   160  156  157 1   
   161  156  163 1   
   162  156  164 1   
   163  157  158 1   
   164  157  165 1   
   165  157  166 1   
   166  158  159 1   
   167  158  160 1   
   168  167  168 1   
   169  167  172 1   
   170  168  169 1   
   171  168  170 1   
   172  168  171 1   
   173  174  175 1   
   174  174  176 1   
   175  177  178 1   
   176  177  179 1   
   177  180  181 1   
   178  180  182 1   
   179  183  184 1   
   180  183  185 1   
   181  186  187 1   
   182  186  188 1   
@<TRIPOS>SUBSTRUCTURE
     1 MOL         1 TEMP              0 ****  ****    0 ROOT
