@<TRIPOS>MOLECULE
MOL
  198   191     1     0     0
SMALL
resp


@<TRIPOS>ATOM
      1 C1         -4.3500    6.0370    2.3090 c3        1 MOL     -0.406605
      2 C2         -4.1650    4.7250    1.4430 c         1 MOL      0.748968
      3 O1         -5.1860    4.3510    0.9060 o         1 MOL     -0.595649
      4 H1         -3.6300    6.7890    1.9870 hc        1 MOL      0.112399
      5 H2         -5.3610    6.4230    2.1730 hc        1 MOL      0.112399
      6 H3         -4.1870    5.8060    3.3610 hc        1 MOL      0.112399
      7 N1         -3.0590    3.9940    1.1650 n         1 MOL     -0.611866
      8 C3         -1.6810    4.2820    1.6930 c3        1 MOL      0.334080
      9 C4         -0.7000    5.2520    0.9420 c         1 MOL      0.304003
     10 O2          0.0420    5.9950    1.5690 o         1 MOL     -0.507757
     11 C5         -0.9040    3.0430    1.9850 c3        1 MOL     -0.201854
     12 C6         -1.7030    2.2450    2.9980 c         1 MOL      0.634908
     13 O3         -2.1040    1.1450    2.6710 o         1 MOL     -0.697247
     14 O4         -2.0090    2.6870    4.1220 o         1 MOL     -0.697247
     15 H4         -3.2060    3.1750    0.5900 hn        1 MOL      0.326030
     16 H5         -1.7860    4.6930    2.6940 h1        1 MOL      0.001476
     17 H6          0.0590    3.2880    2.4490 hc        1 MOL      0.050029
     18 H7         -0.7950    2.4470    1.0830 hc        1 MOL      0.050029
     19 N2         -0.8510    5.3560   -0.4050 n         1 MOL     -0.194783
     20 C7         -0.3250    6.4740   -1.2640 c3        1 MOL     -0.416887
     21 C8          1.1780    6.3740   -1.4920 c         1 MOL      0.443857
     22 O5          1.6870    7.3710   -2.0460 o         1 MOL     -0.573417
     23 C9         -1.1830    6.7640   -2.5220 c3        1 MOL      0.235185
     24 C10        -1.2090    5.6070   -3.4720 c3        1 MOL      0.077764
     25 C11        -2.6370    7.0160   -2.1820 c3        1 MOL     -0.357769
     26 C12         0.1080    5.1890   -4.1780 c3        1 MOL     -0.241521
     27 H8         -1.4530    4.6680   -0.8450 hn        1 MOL      0.228695
     28 H9         -0.3210    7.3350   -0.5990 h1        1 MOL      0.214314
     29 H10        -0.8030    7.6960   -2.9290 hc        1 MOL      0.040027
     30 H11        -1.8080    5.9330   -4.3320 hc        1 MOL     -0.015856
     31 H12        -1.6690    4.7380   -2.9970 hc        1 MOL     -0.015856
     32 H13        -3.2260    6.1170   -1.9450 hc        1 MOL      0.071829
     33 H14        -2.7110    7.7830   -1.4120 hc        1 MOL      0.071829
     34 H15        -3.0930    7.4850   -3.0480 hc        1 MOL      0.071829
     35 H16         0.7560    4.5240   -3.5910 hc        1 MOL      0.055850
     36 H17        -0.1380    4.8060   -5.1660 hc        1 MOL      0.055850
     37 H18         0.6460    6.1250   -4.3220 hc        1 MOL      0.055850
     38 N3          1.9430    5.4390   -1.0320 n         1 MOL     -0.085268
     39 C13         3.3980    5.4090   -0.9560 c3        1 MOL      0.242457
     40 C14         3.9390    4.5980    0.2580 c         1 MOL      0.223479
     41 O6          3.1690    3.8690    0.9790 o         1 MOL     -0.481550
     42 C15         4.0330    5.0310   -2.3100 c3        1 MOL     -0.178145
     43 C16         5.5060    5.2870   -2.4440 c         1 MOL      0.685994
     44 O7          6.2640    4.4150   -2.9460 o         1 MOL     -0.710954
     45 O8          5.9380    6.3000   -1.9080 o         1 MOL     -0.710954
     46 H19         1.4740    4.6410   -0.6210 hn        1 MOL      0.165257
     47 H20         3.8270    6.3950   -0.7830 h1        1 MOL     -0.024415
     48 H21         3.5620    5.6840   -3.0440 hc        1 MOL      0.005077
     49 H22         3.7950    3.9820   -2.5150 hc        1 MOL      0.005077
     50 N4          5.2880    4.6710    0.4670 n         1 MOL     -0.172627
     51 C17         6.0230    3.8500    1.4650 c3        1 MOL     -0.196722
     52 C18         6.1280    2.4270    0.9670 c         1 MOL      0.760270
     53 O9          5.8040    2.1810   -0.1480 o         1 MOL     -0.547686
     54 H23         5.8200    5.3950    0.0070 hn        1 MOL      0.248496
     55 H24         5.3920    3.8760    2.3480 h1        1 MOL      0.093180
     56 H25         7.0280    4.2270    1.6570 h1        1 MOL      0.093180
     57 N5          6.4650    1.5400    1.9130 n         1 MOL     -0.663121
     58 C19         6.7900    0.1430    1.7760 c3        1 MOL      0.555615
     59 C20         8.0000   -0.0220    0.8450 c         1 MOL      0.344654
     60 O10         8.9260    0.8060    0.9090 o         1 MOL     -0.489951
     61 C21         7.1560   -0.4680    3.1910 c3        1 MOL     -0.334989
     62 C22         8.0070    0.4370    4.1310 c         1 MOL      0.768084
     63 O11         9.1650    0.1210    4.2980 o         1 MOL     -0.715282
     64 O12         7.4680    1.4430    4.6970 o         1 MOL     -0.715282
     65 H26         6.6250    1.9480    2.8180 hn        1 MOL      0.234660
     66 H27         5.9700   -0.3870    1.2920 h1        1 MOL     -0.108447
     67 H28         7.7800   -1.3320    2.9340 hc        1 MOL      0.023189
     68 H29         6.2160   -0.7720    3.6410 hc        1 MOL      0.023189
     69 N6          8.0820   -1.0970    0.0780 n         1 MOL     -0.375761
     70 C23         7.0810   -2.2250   -0.1060 c3        1 MOL     -0.099640
     71 C24         7.3910   -3.0840   -1.3650 c         1 MOL      0.691486
     72 O13         8.3370   -2.7860   -2.0670 o         1 MOL     -0.539657
     73 H30         8.8190   -0.9910   -0.6040 hn        1 MOL      0.269710
     74 H31         6.0590   -1.8330   -0.1980 h1        1 MOL      0.095886
     75 H32         7.2160   -2.8700    0.7640 h1        1 MOL      0.095886
     76 N7          6.5750   -4.0700   -1.8020 n         1 MOL     -0.749701
     77 C25         5.4930   -4.7910   -1.0630 c3        1 MOL      0.284584
     78 C26         4.3410   -3.8640   -0.5660 c         1 MOL      0.510176
     79 O14         4.2620   -3.4460    0.6090 o         1 MOL     -0.514272
     80 C27         6.1680   -5.6870   -0.0200 c3        1 MOL     -0.117864
     81 C28         5.2280   -6.7230    0.5880 c3        1 MOL     -0.372710
     82 C29         5.9940   -7.4820    1.6790 c         1 MOL      0.856721
     83 N8          5.4060   -7.9370    2.7570 n         1 MOL     -0.885872
     84 O15         7.1340   -7.8580    1.5030 o         1 MOL     -0.600338
     85 H33         6.8810   -4.4290   -2.6970 hn        1 MOL      0.347767
     86 H34         4.9810   -5.4810   -1.7330 h1        1 MOL      0.035791
     87 H35         6.5020   -5.2100    0.8960 hc        1 MOL      0.073038
     88 H36         7.0110   -6.2340   -0.4520 hc        1 MOL      0.073038
     89 H37         4.9420   -7.5100   -0.0980 hc        1 MOL      0.077788
     90 H38         4.3760   -6.2170    1.0400 hc        1 MOL      0.077788
     91 H39         4.4060   -7.8020    2.8800 hn        1 MOL      0.377602
     92 H40         5.9530   -8.3420    3.5020 hn        1 MOL      0.377602
     93 N9          3.3720   -3.6240   -1.4930 n         1 MOL     -0.535231
     94 C30         2.2140   -2.8070   -1.2250 c3        1 MOL      0.201588
     95 C31         1.8460   -1.9630   -2.3960 c         1 MOL      0.583503
     96 O16         2.3840   -2.0360   -3.4820 o         1 MOL     -0.548433
     97 C32         1.0470   -3.6290   -0.8470 c3        1 MOL      0.117801
     98 C33         1.1240   -4.4220    0.5560 c3        1 MOL     -0.250810
     99 C34         0.6190   -4.6660   -1.8460 c3        1 MOL     -0.250810
    100 H41         3.4990   -4.1140   -2.3670 hn        1 MOL      0.285149
    101 H42         2.3800   -2.0940   -0.4210 h1        1 MOL      0.059822
    102 H43         0.1860   -2.9730   -0.7950 hc        1 MOL      0.004316
    103 H44         0.1030   -4.7240    0.8130 hc        1 MOL      0.061628
    104 H45         1.6980   -5.3390    0.4450 hc        1 MOL      0.061628
    105 H46         1.5320   -3.9200    1.4300 hc        1 MOL      0.061628
    106 H47         1.1790   -5.5910   -1.6550 hc        1 MOL      0.061628
    107 H48        -0.4670   -4.7790   -1.8670 hc        1 MOL      0.061628
    108 H49         0.9130   -4.3970   -2.8560 hc        1 MOL      0.061628
    109 N10         1.0070   -0.9550   -2.1120 n         1 MOL     -0.442472
    110 C35         0.5850    0.0630   -3.1960 c3        1 MOL      0.019938
    111 C36        -0.9410    0.2600   -3.3190 c         1 MOL      0.700986
    112 O17        -1.4320    1.2940   -3.6350 o         1 MOL     -0.525420
    113 C37         1.4350    1.3750   -3.0400 c3        1 MOL     -0.408380
    114 C38         1.3470    2.0330   -1.7130 c         1 MOL      0.770753
    115 N11         2.1920    1.7330   -0.7300 n         1 MOL     -0.693143
    116 O18         0.5590    2.8890   -1.5180 o         1 MOL     -0.561649
    117 H50         0.5500   -0.9100   -1.2160 hn        1 MOL      0.168401
    118 H51         0.8150   -0.3300   -4.1910 h1        1 MOL      0.088772
    119 H52         1.1740    2.1190   -3.7890 hc        1 MOL      0.146194
    120 H53         2.4700    1.0910   -3.2430 hc        1 MOL      0.146194
    121 H54         3.0070    1.1520   -0.8910 hn        1 MOL      0.306057
    122 H55         2.2190    2.3640    0.0580 hn        1 MOL      0.306057
    123 N12        -1.6630   -0.8710   -3.1320 n         1 MOL     -0.669215
    124 C39        -3.1280   -1.0330   -3.2730 c3        1 MOL      0.135252
    125 C40        -3.7380   -1.8550   -2.0920 c         1 MOL      0.597668
    126 O19        -3.0130   -2.4930   -1.3550 o         1 MOL     -0.440032
    127 C41        -3.4690   -1.7320   -4.6660 c3        1 MOL     -0.103275
    128 C42        -3.1540   -3.1560   -4.7620 ca        1 MOL      0.042688
    129 C43        -4.0620   -4.1460   -4.5450 ca        1 MOL     -0.118350
    130 C44        -1.8410   -3.5140   -4.9160 ca        1 MOL     -0.118350
    131 C45        -3.7220   -5.4630   -4.4610 ca        1 MOL     -0.319838
    132 C46        -1.4080   -4.8200   -4.7080 ca        1 MOL     -0.319838
    133 C47        -2.3640   -5.8160   -4.3660 ca        1 MOL      0.416088
    134 O20        -2.0170   -7.1120   -4.2510 oh        1 MOL     -0.499725
    135 H56        -1.0770   -1.6700   -2.9020 hn        1 MOL      0.294996
    136 H57        -3.5890   -0.0480   -3.2900 h1        1 MOL      0.066586
    137 H58        -2.9260   -1.1940   -5.4410 hc        1 MOL      0.035885
    138 H59        -4.5460   -1.5830   -4.7560 hc        1 MOL      0.035885
    139 H60        -5.1090   -4.0310   -4.3170 ha        1 MOL      0.122029
    140 H61        -1.0260   -2.8240   -5.0740 ha        1 MOL      0.122029
    141 H62        -4.5240   -6.1700   -4.3110 ha        1 MOL      0.166941
    142 H63        -0.3830   -5.1160   -4.8620 ha        1 MOL      0.166941
    143 H64        -1.0740   -7.2390   -4.3710 ho        1 MOL      0.351212
    144 N13        -5.1200   -1.8370   -1.9260 n         1 MOL     -0.634949
    145 C48        -5.8350   -2.2140   -0.6860 c3        1 MOL      0.234068
    146 C49        -6.8060   -1.0940   -0.3230 c         1 MOL      0.242272
    147 O21        -7.9690   -1.1230   -0.6900 o         1 MOL     -0.521260
    148 C50        -6.6660   -3.5650   -0.8690 c3        1 MOL     -0.166801
    149 C51        -7.0790   -4.1610    0.5210 c3        1 MOL      0.157925
    150 C52        -6.1430   -5.2770    0.9310 c         1 MOL      0.625347
    151 O22        -6.6790   -6.3630    1.0710 o         1 MOL     -0.708646
    152 O23        -4.9450   -5.0680    1.2260 o         1 MOL     -0.708646
    153 H65        -5.7200   -1.4010   -2.6190 hn        1 MOL      0.324057
    154 H66        -5.1170   -2.2930    0.1310 h1        1 MOL     -0.078082
    155 H67        -6.0860   -4.3550   -1.3570 hc        1 MOL      0.050606
    156 H68        -7.5250   -3.4570   -1.5240 hc        1 MOL      0.050606
    157 H69        -8.0730   -4.5870    0.4640 hc        1 MOL     -0.052330
    158 H70        -7.1110   -3.3990    1.2970 hc        1 MOL     -0.052330
    159 N14        -6.3900   -0.1380    0.4250 n         1 MOL      0.195677
    160 C53        -7.1660    1.0200    0.8230 c3        1 MOL     -0.250898
    161 C54        -7.1080    2.0910   -0.2900 c         1 MOL      0.496208
    162 O24        -8.0470    2.8480   -0.4640 o         1 MOL     -0.568512
    163 C55        -6.8030    1.6290    2.1720 c3        1 MOL      0.253969
    164 C56        -7.2260    0.8830    3.4350 c3        1 MOL     -0.219801
    165 C57        -6.2810   -0.4250    3.5900 c         1 MOL      0.797258
    166 O25        -5.0690   -0.2840    3.7690 o         1 MOL     -0.771776
    167 O26        -6.7920   -1.5260    3.4820 o         1 MOL     -0.771776
    168 H71        -5.4410   -0.1220    0.7640 hn        1 MOL      0.052692
    169 H72        -8.2320    0.7700    0.8800 h1        1 MOL      0.117151
    170 H73        -7.1780    2.6530    2.1540 hc        1 MOL     -0.032137
    171 H74        -5.7300    1.7730    2.2200 hc        1 MOL     -0.032137
    172 H75        -8.3020    0.7190    3.4470 hc        1 MOL      0.028051
    173 H76        -7.0340    1.6130    4.2210 hc        1 MOL      0.028051
    174 N15        -6.1380    1.9970   -1.1350 n         1 MOL     -0.161049
    175 C58        -6.1890    2.6010   -2.4970 c3        1 MOL     -0.308755
    176 H77        -5.2100    3.0070   -2.7500 h1        1 MOL      0.123256
    177 H78        -6.4640    1.8370   -3.2240 h1        1 MOL      0.123256
    178 H79        -6.9290    3.4010   -2.5130 h1        1 MOL      0.123256
    179 H80        -5.3760    1.4180   -0.8190 hn        1 MOL      0.147067
    180 Ca1        -2.6260   -1.0290    3.9640 Ca        1 MOL      1.716949
    181 O27        -3.9060   -1.4000    6.3090 oh        1 MOL     -0.839479
    182 H81        -4.8590   -1.5320    6.2460 ho        1 MOL      0.413643
    183 H82        -3.6380   -1.9670    7.0330 ho        1 MOL      0.413643
    184 O28        -4.2830   -3.1220    3.3440 oh        1 MOL     -0.839479
    185 H83        -4.4210   -3.8080    2.6840 ho        1 MOL      0.413643
    186 H84        -5.1370   -2.6940    3.4350 ho        1 MOL      0.413643
    187 O29        -1.9410   -1.6160    1.2710 oh        1 MOL     -0.839479
    188 H85        -1.6330   -0.7350    1.0680 ho        1 MOL      0.413643
    189 H86        -2.2190   -1.9780    0.4290 ho        1 MOL      0.413643
    190 O30        -1.7150    0.6690    5.7610 oh        1 MOL     -0.839479
    191 H87        -0.8100    0.5660    5.4720 ho        1 MOL      0.413643
    192 H88        -1.9530    1.5610    5.5040 ho        1 MOL      0.413643
    193 O31         0.0580   -0.6360    3.8060 oh        1 MOL     -0.839479
    194 H89         0.6530   -1.3910    3.7530 ho        1 MOL      0.413643
    195 H90         0.6020    0.1120    3.5390 ho        1 MOL      0.413643
    196 O32        -1.3710   -3.2190    4.6890 oh        1 MOL     -0.839479
    197 H91        -1.5580   -4.0580    4.2710 ho        1 MOL      0.413643
    198 H92        -0.5360   -3.3490    5.1290 ho        1 MOL      0.413643
@<TRIPOS>BOND
     1    1    2 1   
     2    1    4 1   
     3    1    5 1   
     4    1    6 1   
     5    2    3 2   
     6    2    7 1   
     7    7    8 1   
     8    7   15 1   
     9    8    9 1   
    10    8   11 1   
    11    8   16 1   
    12    9   10 2   
    13    9   19 1   
    14   11   12 1   
    15   11   17 1   
    16   11   18 1   
    17   12   13 1   
    18   12   14 1   
    19   19   20 1   
    20   19   27 1   
    21   20   21 1   
    22   20   23 1   
    23   20   28 1   
    24   21   22 2   
    25   21   38 1   
    26   23   24 1   
    27   23   25 1   
    28   23   29 1   
    29   24   26 1   
    30   24   30 1   
    31   24   31 1   
    32   25   32 1   
    33   25   33 1   
    34   25   34 1   
    35   26   35 1   
    36   26   36 1   
    37   26   37 1   
    38   38   39 1   
    39   38   46 1   
    40   39   40 1   
    41   39   42 1   
    42   39   47 1   
    43   40   41 2   
    44   40   50 1   
    45   42   43 1   
    46   42   48 1   
    47   42   49 1   
    48   43   44 1   
    49   43   45 1   
    50   50   51 1   
    51   50   54 1   
    52   51   52 1   
    53   51   55 1   
    54   51   56 1   
    55   52   53 2   
    56   52   57 1   
    57   57   58 1   
    58   57   65 1   
    59   58   59 1   
    60   58   61 1   
    61   58   66 1   
    62   59   60 2   
    63   59   69 1   
    64   61   62 1   
    65   61   67 1   
    66   61   68 1   
    67   62   63 1   
    68   62   64 1   
    69   69   70 1   
    70   69   73 1   
    71   70   71 1   
    72   70   74 1   
    73   70   75 1   
    74   71   72 2   
    75   71   76 1   
    76   76   77 1   
    77   76   85 1   
    78   77   78 1   
    79   77   80 1   
    80   77   86 1   
    81   78   79 2   
    82   78   93 1   
    83   80   81 1   
    84   80   87 1   
    85   80   88 1   
    86   81   82 1   
    87   81   89 1   
    88   81   90 1   
    89   82   83 1   
    90   82   84 2   
    91   83   91 1   
    92   83   92 1   
    93   93   94 1   
    94   93  100 1   
    95   94   95 1   
    96   94   97 1   
    97   94  101 1   
    98   95   96 2   
    99   95  109 1   
   100   97   98 1   
   101   97   99 1   
   102   97  102 1   
   103   98  103 1   
   104   98  104 1   
   105   98  105 1   
   106   99  106 1   
   107   99  107 1   
   108   99  108 1   
   109  109  110 1   
   110  109  117 1   
   111  110  111 1   
   112  110  113 1   
   113  110  118 1   
   114  111  112 2   
   115  111  123 1   
   116  113  114 1   
   117  113  119 1   
   118  113  120 1   
   119  114  115 1   
   120  114  116 2   
   121  115  121 1   
   122  115  122 1   
   123  123  124 1   
   124  123  135 1   
   125  124  125 1   
   126  124  127 1   
   127  124  136 1   
   128  125  126 2   
   129  125  144 1   
   130  127  128 1   
   131  127  137 1   
   132  127  138 1   
   133  128  129 ar  
   134  128  130 ar  
   135  129  131 ar  
   136  129  139 1   
   137  130  132 ar  
   138  130  140 1   
   139  131  133 ar  
   140  131  141 1   
   141  132  133 ar  
   142  132  142 1   
   143  133  134 1   
   144  134  143 1   
   145  144  145 1   
   146  144  153 1   
   147  145  146 1   
   148  145  148 1   
   149  145  154 1   
   150  146  147 2   
   151  146  159 1   
   152  148  149 1   
   153  148  155 1   
   154  148  156 1   
   155  149  150 1   
   156  149  157 1   
   157  149  158 1   
   158  150  151 1   
   159  150  152 1   
   160  159  160 1   
   161  159  168 1   
   162  160  161 1   
   163  160  163 1   
   164  160  169 1   
   165  161  162 2   
   166  161  174 1   
   167  163  164 1   
   168  163  170 1   
   169  163  171 1   
   170  164  165 1   
   171  164  172 1   
   172  164  173 1   
   173  165  166 1   
   174  165  167 1   
   175  174  175 1   
   176  174  179 1   
   177  175  176 1   
   178  175  177 1   
   179  175  178 1   
   180  181  182 1   
   181  181  183 1   
   182  184  185 1   
   183  184  186 1   
   184  187  188 1   
   185  187  189 1   
   186  190  191 1   
   187  190  192 1   
   188  193  194 1   
   189  193  195 1   
   190  196  197 1   
   191  196  198 1   
@<TRIPOS>SUBSTRUCTURE
     1 MOL         1 TEMP              0 ****  ****    0 ROOT
