@<TRIPOS>MOLECULE
MOL
  182   178     1     0     0
SMALL
resp


@<TRIPOS>ATOM
      1 C1          0.6990   -4.8610    5.9450 c3        1 MOL     -0.277496
      2 C2          0.8290   -4.4980    4.4890 c         1 MOL      0.757668
      3 O1         -0.0490   -4.7660    3.6880 o         1 MOL     -0.575373
      4 H1          1.4910   -5.5590    6.2170 hc        1 MOL      0.070098
      5 H2          0.7830   -3.9600    6.5540 hc        1 MOL      0.070098
      6 H3         -0.2710   -5.3270    6.1180 hc        1 MOL      0.070098
      7 N1          1.9430   -3.8520    4.0810 n         1 MOL     -0.681212
      8 C3          2.2100   -3.4470    2.6580 c3        1 MOL      0.105026
      9 C4          2.6820   -4.6280    1.8770 c         1 MOL      0.713459
     10 O2          3.2270   -5.6250    2.3560 o         1 MOL     -0.588248
     11 C5          3.2280   -2.3230    2.6580 c3        1 MOL     -0.188935
     12 C6          3.2250   -1.4160    1.4660 c         1 MOL      0.777538
     13 O3          3.6730   -0.2470    1.6700 o         1 MOL     -0.714148
     14 O4          2.7660   -1.7910    0.3980 o         1 MOL     -0.714148
     15 H4          2.6620   -3.6830    4.7720 hn        1 MOL      0.340498
     16 H5          1.3300   -3.1240    2.0960 h1        1 MOL     -0.040934
     17 H6          4.1880   -2.8450    2.5980 hc        1 MOL      0.035449
     18 H7          3.0510   -1.7300    3.5520 hc        1 MOL      0.035449
     19 N2          2.4880   -4.5500    0.5760 n         1 MOL     -0.452417
     20 C7          2.8580   -5.5540   -0.4020 c3        1 MOL     -0.019666
     21 C8          3.9690   -5.1850   -1.3670 c         1 MOL      0.543202
     22 O5          4.4910   -6.0950   -1.9940 o         1 MOL     -0.557276
     23 C9          1.5930   -5.9100   -1.1780 c3        1 MOL      0.033864
     24 C10         0.9080   -4.8730   -2.0750 c3        1 MOL     -0.109833
     25 C11        -0.6010   -5.2480   -2.2310 c3        1 MOL     -0.119070
     26 C12        -1.2860   -4.0750   -3.0160 c3        1 MOL      0.209344
     27 N3         -0.7160   -3.9730   -4.4410 n4        1 MOL     -0.293431
     28 H8          2.1960   -3.6290    0.2640 hn        1 MOL      0.111522
     29 H9          3.2330   -6.4400    0.0950 h1        1 MOL      0.131880
     30 H10         0.9530   -6.2450   -0.3590 hc        1 MOL      0.033381
     31 H11         1.7220   -6.8610   -1.6910 hc        1 MOL      0.033381
     32 H12         1.4370   -5.0110   -3.0150 hc        1 MOL      0.041677
     33 H13         1.0460   -3.8500   -1.7240 hc        1 MOL      0.041677
     34 H14        -1.1410   -5.3030   -1.2900 hc        1 MOL      0.081394
     35 H15        -0.7230   -6.1430   -2.8500 hc        1 MOL      0.081394
     36 H16        -1.2180   -3.1000   -2.5300 hx        1 MOL     -0.008052
     37 H17        -2.3490   -4.2700   -3.1740 hx        1 MOL     -0.008052
     38 H18        -1.1900   -3.2880   -5.0050 hn        1 MOL      0.252276
     39 H19         0.2800   -3.8340   -4.3770 hn        1 MOL      0.252276
     40 H20        -0.9050   -4.8680   -4.8780 hn        1 MOL      0.252276
     41 N4          4.3440   -3.9410   -1.4850 n         1 MOL     -0.515049
     42 C13         5.4310   -3.4370   -2.3560 c3        1 MOL      0.189146
     43 C14         6.6770   -2.7080   -1.6710 c         1 MOL      0.343983
     44 O6          7.7530   -2.4820   -2.2360 o         1 MOL     -0.516933
     45 C15         4.9100   -2.4220   -3.4680 c3        1 MOL     -0.409701
     46 C16         4.0800   -1.3100   -2.7830 c         1 MOL      0.953604
     47 O7          2.8790   -1.1420   -3.0370 o         1 MOL     -0.828112
     48 O8          4.6220   -0.7140   -1.7790 o         1 MOL     -0.828112
     49 H21         3.8480   -3.2850   -0.8850 hn        1 MOL      0.333462
     50 H22         5.8700   -4.3110   -2.8130 h1        1 MOL      0.114602
     51 H23         4.2620   -2.9860   -4.1300 hc        1 MOL      0.104992
     52 H24         5.7110   -2.0050   -4.0750 hc        1 MOL      0.104992
     53 N5          6.5530   -2.4260   -0.3800 n         1 MOL     -0.141976
     54 C17         7.6160   -1.9080    0.4520 c3        1 MOL     -0.274231
     55 C18         7.5470   -0.3980    0.4730 c         1 MOL      0.611094
     56 O9          8.1760    0.1890    1.3640 o         1 MOL     -0.572452
     57 H25         5.6260   -2.4700    0.0100 hn        1 MOL      0.169748
     58 H26         8.6030   -2.1870    0.0880 h1        1 MOL      0.150654
     59 H27         7.4460   -2.2850    1.4690 h1        1 MOL      0.150654
     60 N6          6.7740    0.2590   -0.3920 n         1 MOL     -0.409706
     61 C19         6.9460    1.7280   -0.5270 c3        1 MOL      0.236444
     62 C20         5.7030    2.5160   -0.2220 c         1 MOL      0.501274
     63 O10         4.6230    1.9500   -0.1400 o         1 MOL     -0.488644
     64 C21         7.5170    2.0980   -1.9060 c3        1 MOL     -0.373580
     65 C22         8.9160    1.4830   -2.1440 c         1 MOL      0.727429
     66 N7          9.0480    0.1860   -2.2480 n         1 MOL     -0.861798
     67 O11         9.8790    2.2020   -2.3020 o         1 MOL     -0.571896
     68 H28         6.1080   -0.2340   -0.9770 hn        1 MOL      0.251493
     69 H29         7.6300    2.1050    0.2340 h1        1 MOL      0.048553
     70 H30         7.5930    3.1710   -2.0570 hc        1 MOL      0.083433
     71 H31         6.7310    1.8090   -2.6090 hc        1 MOL      0.083433
     72 H32         8.2280   -0.3930   -2.1530 hn        1 MOL      0.401000
     73 H33         9.9790   -0.1870   -2.3960 hn        1 MOL      0.401000
     74 N8          5.7780    3.8620   -0.1470 n         1 MOL     -0.497436
     75 C23         4.6080    4.7360   -0.4110 c3        1 MOL      0.059779
     76 C24         3.6920    4.7420    0.8080 c         1 MOL      0.472526
     77 O12         4.0160    4.3300    1.9130 o         1 MOL     -0.439009
     78 H34         6.7150    4.2250   -0.1040 hn        1 MOL      0.320685
     79 H35         4.0840    4.4490   -1.3220 h1        1 MOL      0.047886
     80 H36         4.8450    5.7950   -0.5550 h1        1 MOL      0.047886
     81 N9          2.3610    5.1470    0.5350 n         1 MOL     -0.491221
     82 C25         1.2490    4.6960    1.3930 c3        1 MOL      0.174092
     83 C26         1.2540    3.1510    1.7280 c         1 MOL      0.647135
     84 O13         1.8940    2.2950    1.0940 o         1 MOL     -0.588046
     85 C27        -0.0240    5.1440    0.7250 c3        1 MOL     -0.087566
     86 C28        -0.1370    6.5890    0.1990 ca        1 MOL     -0.015972
     87 C29        -0.7370    6.8130   -1.0880 ca        1 MOL     -0.055296
     88 C30         0.3150    7.7160    0.9260 ca        1 MOL     -0.055296
     89 C31        -0.7770    8.0900   -1.6970 ca        1 MOL     -0.395599
     90 C32         0.2470    8.9810    0.3390 ca        1 MOL     -0.395599
     91 C33        -0.1980    9.1550   -0.9400 ca        1 MOL      0.470135
     92 O14        -0.1310   10.4100   -1.3810 oh        1 MOL     -0.481332
     93 H37         2.1960    5.6520   -0.3190 hn        1 MOL      0.242121
     94 H38         1.3670    5.2720    2.3200 h1        1 MOL      0.036225
     95 H39        -0.8430    4.9190    1.3930 hc        1 MOL      0.004320
     96 H40        -0.0780    4.4370   -0.0970 hc        1 MOL      0.004320
     97 H41        -1.1850    6.0140   -1.6520 ha        1 MOL      0.119512
     98 H42         0.7080    7.6720    1.9290 ha        1 MOL      0.119512
     99 H43        -1.2260    8.2850   -2.6660 ha        1 MOL      0.191518
    100 H44         0.4970    9.8140    0.9680 ha        1 MOL      0.191518
    101 H45        -0.3580   10.5330   -2.3020 ho        1 MOL      0.363476
    102 N10         0.4130    2.8170    2.6820 n         1 MOL     -0.591767
    103 C34        -0.0950    1.4930    3.1290 c3        1 MOL      0.108036
    104 C35        -0.2940    0.4650    1.9990 c         1 MOL      0.274649
    105 O15         0.6020   -0.0730    1.4410 o         1 MOL     -0.121471
    106 C36         1.0140    0.9610    4.1280 c3        1 MOL      0.121099
    107 C37         0.6280   -0.4660    4.7270 c3        1 MOL      0.053251
    108 C38         1.5260    1.9350    5.2920 c3        1 MOL     -0.157473
    109 C39        -0.6370   -0.5370    5.5500 c3        1 MOL     -0.316452
    110 H46        -0.0850    3.6170    3.0540 hn        1 MOL      0.294330
    111 H47        -1.0460    1.5200    3.6570 h1        1 MOL      0.059249
    112 H48         1.8960    0.6480    3.5680 hc        1 MOL      0.002003
    113 H49         1.4350   -0.8080    5.3830 hc        1 MOL      0.042399
    114 H50         0.4410   -1.1250    3.8770 hc        1 MOL      0.042399
    115 H51         1.9500    2.8730    4.9480 hc        1 MOL      0.041757
    116 H52         0.6980    2.0480    5.9920 hc        1 MOL      0.041757
    117 H53         2.2750    1.5010    5.9450 hc        1 MOL      0.041757
    118 H54        -1.4830   -0.4000    4.8860 hc        1 MOL      0.071838
    119 H55        -0.7750   -1.5410    5.9490 hc        1 MOL      0.071838
    120 H56        -0.5920    0.2090    6.3400 hc        1 MOL      0.071838
    121 N11        -1.5600    0.0950    1.7050 n         1 MOL     -0.407245
    122 C40        -2.0980   -0.7680    0.5860 c3        1 MOL     -0.072200
    123 C41        -3.5730   -0.5100    0.4850 c         1 MOL      0.521709
    124 O16        -4.3050   -0.8940    1.4190 o         1 MOL     -0.502682
    125 C42        -1.7090   -2.2320    0.7740 c3        1 MOL      0.018136
    126 O17        -0.3690   -2.5640    0.5920 oh        1 MOL     -0.316608
    127 H57        -2.2720    0.5200    2.2840 hn        1 MOL      0.290946
    128 H58        -1.7230   -0.4490   -0.3840 h1        1 MOL      0.115829
    129 H59        -2.2880   -2.9390    0.1880 h1        1 MOL      0.085883
    130 H60        -1.9680   -2.5070    1.7980 h1        1 MOL      0.085883
    131 H61         0.0340   -1.8970    0.0330 ho        1 MOL      0.256789
    132 N12        -4.0620    0.0240   -0.6320 n         1 MOL     -0.537833
    133 C43        -5.4840    0.0670   -0.9430 c3        1 MOL      0.156655
    134 C44        -5.7030    0.1450   -2.5040 c         1 MOL      0.553816
    135 O18        -4.8140    0.4990   -3.2200 o         1 MOL     -0.585049
    136 C45        -6.0650    1.2980   -0.1210 c3        1 MOL     -0.246019
    137 H62        -3.4680    0.3980   -1.3510 hn        1 MOL      0.267308
    138 H63        -5.9510   -0.8460   -0.5690 h1        1 MOL      0.061697
    139 H64        -5.6050    1.2510    0.8700 hc        1 MOL      0.089309
    140 H65        -5.6670    2.2090   -0.5730 hc        1 MOL      0.089309
    141 H66        -7.1540    1.2730   -0.1480 hc        1 MOL      0.089309
    142 N13        -6.8720   -0.1210   -2.9760 n         1 MOL     -0.540987
    143 C46        -8.0360   -0.5650   -2.1960 c3        1 MOL      0.333003
    144 C47        -9.2380    0.4410   -2.3560 c         1 MOL      0.456628
    145 O19        -9.3800    1.1730   -3.3130 o         1 MOL     -0.539170
    146 C48        -8.3470   -2.0530   -2.5570 c3        1 MOL     -0.475167
    147 H67        -6.9250   -0.1980   -3.9820 hn        1 MOL      0.329367
    148 H68        -7.7290   -0.6580   -1.1580 h1        1 MOL      0.033170
    149 H69        -9.0370   -2.4810   -1.8320 hc        1 MOL      0.136655
    150 H70        -8.8110   -2.1180   -3.5420 hc        1 MOL      0.136655
    151 H71        -7.3430   -2.4760   -2.5740 hc        1 MOL      0.136655
    152 N14       -10.0710    0.5100   -1.3230 n         1 MOL     -0.379088
    153 C49       -10.0020   -0.1630    0.0040 c3        1 MOL     -0.429279
    154 C50        -9.5460    0.8040    1.0900 c         1 MOL      0.559086
    155 O20        -8.8120    0.4260    1.9310 o         1 MOL     -0.500438
    156 C51       -11.4190   -0.6870    0.3040 c3        1 MOL      0.316708
    157 C52       -11.9460   -1.6640   -0.7690 c3        1 MOL     -0.184222
    158 C53       -13.1500   -2.4700   -0.3090 c         1 MOL      0.650754
    159 O21       -13.0040   -3.4500    0.4510 o         1 MOL     -0.638665
    160 O22       -14.2910   -2.0220   -0.5710 o         1 MOL     -0.638665
    161 H72       -10.8300    1.1870   -1.3370 hn        1 MOL      0.319513
    162 H73        -9.3670   -1.0490    0.0330 h1        1 MOL      0.194952
    163 H74       -12.1720    0.1030    0.3240 hc        1 MOL     -0.019267
    164 H75       -11.4710   -1.1320    1.2920 hc        1 MOL     -0.019267
    165 H76       -11.2220   -2.4040   -1.1210 hc        1 MOL      0.014118
    166 H77       -12.2780   -1.0580   -1.6140 hc        1 MOL      0.014118
    167 N15        -9.8720    2.0940    1.0200 n         1 MOL     -0.345283
    168 C54        -9.4320    3.1460    1.9320 c3        1 MOL     -0.261852
    169 H78       -10.2420    3.8600    2.0790 h1        1 MOL      0.124106
    170 H79        -9.1580    2.7050    2.8900 h1        1 MOL      0.124106
    171 H80        -8.5690    3.6580    1.5070 h1        1 MOL      0.124106
    172 H81       -10.3840    2.3980    0.1970 hn        1 MOL      0.259335
    173 Ca1         2.5630    0.5360   -0.7000 Ca        1 MOL      1.754166
    174 O23         0.3440    1.9510   -1.5930 oh        1 MOL     -0.890300
    175 H82         0.6800    2.5610   -2.2470 ho        1 MOL      0.425561
    176 H83        -0.6020    1.9090   -1.7530 ho        1 MOL      0.425561
    177 O24         0.5140   -0.9770   -1.6700 oh        1 MOL     -0.890300
    178 H84        -0.1390   -0.7300   -2.3250 ho        1 MOL      0.425561
    179 H85         1.2010   -1.4110   -2.1770 ho        1 MOL      0.425561
    180 O25         3.3690    1.9720   -2.8150 oh        1 MOL     -0.890300
    181 H86         4.1020    1.7650   -3.4070 ho        1 MOL      0.425561
    182 H87         2.9570    2.7360   -3.2150 ho        1 MOL      0.425561
@<TRIPOS>BOND
     1    1    2 1   
     2    1    4 1   
     3    1    5 1   
     4    1    6 1   
     5    2    3 2   
     6    2    7 1   
     7    7    8 1   
     8    7   15 1   
     9    8    9 1   
    10    8   11 1   
    11    8   16 1   
    12    9   10 2   
    13    9   19 1   
    14   11   12 1   
    15   11   17 1   
    16   11   18 1   
    17   12   13 1   
    18   12   14 1   
    19   19   20 1   
    20   19   28 1   
    21   20   21 1   
    22   20   23 1   
    23   20   29 1   
    24   21   22 2   
    25   21   41 1   
    26   23   24 1   
    27   23   30 1   
    28   23   31 1   
    29   24   25 1   
    30   24   32 1   
    31   24   33 1   
    32   25   26 1   
    33   25   34 1   
    34   25   35 1   
    35   26   27 1   
    36   26   36 1   
    37   26   37 1   
    38   27   38 1   
    39   27   39 1   
    40   27   40 1   
    41   41   42 1   
    42   41   49 1   
    43   42   43 1   
    44   42   45 1   
    45   42   50 1   
    46   43   44 2   
    47   43   53 1   
    48   45   46 1   
    49   45   51 1   
    50   45   52 1   
    51   46   47 1   
    52   46   48 1   
    53   53   54 1   
    54   53   57 1   
    55   54   55 1   
    56   54   58 1   
    57   54   59 1   
    58   55   56 2   
    59   55   60 1   
    60   60   61 1   
    61   60   68 1   
    62   61   62 1   
    63   61   64 1   
    64   61   69 1   
    65   62   63 2   
    66   62   74 1   
    67   64   65 1   
    68   64   70 1   
    69   64   71 1   
    70   65   66 1   
    71   65   67 2   
    72   66   72 1   
    73   66   73 1   
    74   74   75 1   
    75   74   78 1   
    76   75   76 1   
    77   75   79 1   
    78   75   80 1   
    79   76   77 2   
    80   76   81 1   
    81   81   82 1   
    82   81   93 1   
    83   82   83 1   
    84   82   85 1   
    85   82   94 1   
    86   83   84 2   
    87   83  102 1   
    88   85   86 1   
    89   85   95 1   
    90   85   96 1   
    91   86   87 ar  
    92   86   88 ar  
    93   87   89 ar  
    94   87   97 1   
    95   88   90 ar  
    96   88   98 1   
    97   89   91 ar  
    98   89   99 1   
    99   90   91 ar  
   100   90  100 1   
   101   91   92 1   
   102   92  101 1   
   103  102  103 1   
   104  102  110 1   
   105  103  104 1   
   106  103  106 1   
   107  103  111 1   
   108  104  105 2   
   109  104  121 1   
   110  106  107 1   
   111  106  108 1   
   112  106  112 1   
   113  107  109 1   
   114  107  113 1   
   115  107  114 1   
   116  108  115 1   
   117  108  116 1   
   118  108  117 1   
   119  109  118 1   
   120  109  119 1   
   121  109  120 1   
   122  121  122 1   
   123  121  127 1   
   124  122  123 1   
   125  122  125 1   
   126  122  128 1   
   127  123  124 2   
   128  123  132 1   
   129  125  126 1   
   130  125  129 1   
   131  125  130 1   
   132  126  131 1   
   133  132  133 1   
   134  132  137 1   
   135  133  134 1   
   136  133  136 1   
   137  133  138 1   
   138  134  135 2   
   139  134  142 1   
   140  136  139 1   
   141  136  140 1   
   142  136  141 1   
   143  142  143 1   
   144  142  147 1   
   145  143  144 1   
   146  143  146 1   
   147  143  148 1   
   148  144  145 2   
   149  144  152 1   
   150  146  149 1   
   151  146  150 1   
   152  146  151 1   
   153  152  153 1   
   154  152  161 1   
   155  153  154 1   
   156  153  156 1   
   157  153  162 1   
   158  154  155 2   
   159  154  167 1   
   160  156  157 1   
   161  156  163 1   
   162  156  164 1   
   163  157  158 1   
   164  157  165 1   
   165  157  166 1   
   166  158  159 1   
   167  158  160 1   
   168  167  168 1   
   169  167  172 1   
   170  168  169 1   
   171  168  170 1   
   172  168  171 1   
   173  174  175 1   
   174  174  176 1   
   175  177  178 1   
   176  177  179 1   
   177  180  181 1   
   178  180  182 1   
@<TRIPOS>SUBSTRUCTURE
     1 MOL         1 TEMP              0 ****  ****    0 ROOT
