@<TRIPOS>MOLECULE
MOL
  195   189     1     0     0
SMALL
resp


@<TRIPOS>ATOM
      1 C1         -3.7890   -5.6190   -2.4530 c3        1 MOL     -0.474556
      2 C2         -4.4510   -4.6520   -1.4460 c         1 MOL      0.687124
      3 O1         -3.7110   -4.0070   -0.7040 o         1 MOL     -0.583654
      4 H1         -3.1870   -5.0500   -3.1600 hc        1 MOL      0.111646
      5 H2         -3.1510   -6.3220   -1.9170 hc        1 MOL      0.111646
      6 H3         -4.5610   -6.1680   -2.9930 hc        1 MOL      0.111646
      7 N1         -5.7610   -4.5660   -1.4530 n         1 MOL     -0.491396
      8 C3         -6.5270   -3.4370   -0.8850 c3        1 MOL      0.100144
      9 C4         -5.8500   -2.0930   -1.1520 c         1 MOL      0.107307
     10 O2         -5.5160   -1.3940   -0.2150 o         1 MOL     -0.334148
     11 C5         -6.9300   -3.6240    0.5630 c3        1 MOL     -0.163403
     12 C6         -5.7740   -4.2500    1.3970 c         1 MOL      0.840571
     13 O3         -5.8440   -5.4460    1.7010 o         1 MOL     -0.771126
     14 O4         -4.8090   -3.5670    1.8610 o         1 MOL     -0.771126
     15 H4         -6.2440   -5.0860   -2.1730 hn        1 MOL      0.294714
     16 H5         -7.4650   -3.4290   -1.4300 h1        1 MOL      0.099508
     17 H6         -7.7110   -4.3890    0.6300 hc        1 MOL      0.054033
     18 H7         -7.2930   -2.7170    1.0510 hc        1 MOL      0.054033
     19 N2         -5.7130   -1.7010   -2.4640 n         1 MOL     -0.178868
     20 C7         -5.2500   -0.3560   -2.8890 c3        1 MOL     -0.120838
     21 C8         -6.1160    0.7820   -2.5790 c         1 MOL      0.517281
     22 O5         -6.5690    1.4850   -3.4820 o         1 MOL     -0.558509
     23 C9         -3.6400   -0.1230   -2.5990 c3        1 MOL      0.097059
     24 C10        -3.0540    1.0470   -3.4950 c3        1 MOL     -0.369628
     25 C11        -2.7790   -1.3910   -2.9020 c3        1 MOL      0.054210
     26 C12        -3.0420    0.8080   -5.0160 c3        1 MOL     -0.278967
     27 H8         -6.0890   -2.3950   -3.0990 hn        1 MOL      0.208593
     28 H9         -5.3990   -0.4230   -3.9680 h1        1 MOL      0.106245
     29 H10        -3.5030    0.1050   -1.5460 hc        1 MOL     -0.065104
     30 H11        -1.9910    1.1460   -3.2480 hc        1 MOL      0.179417
     31 H12        -3.6160    1.9660   -3.3160 hc        1 MOL      0.179417
     32 H13        -3.0720   -1.7320   -3.9030 hc        1 MOL     -0.016389
     33 H14        -1.7060   -1.2070   -2.8870 hc        1 MOL     -0.016389
     34 H15        -2.9940   -2.1680   -2.1710 hc        1 MOL     -0.016389
     35 H16        -2.5320   -0.0840   -5.3680 hc        1 MOL      0.073633
     36 H17        -4.0840    0.7340   -5.3480 hc        1 MOL      0.073633
     37 H18        -2.4110    1.4950   -5.5840 hc        1 MOL      0.073633
     38 N3         -6.4290    0.9600   -1.2860 n         1 MOL     -0.293096
     39 C13        -7.3820    1.9150   -0.6840 c3        1 MOL      0.027033
     40 C14        -6.9640    3.4080   -0.6360 c         1 MOL      0.564867
     41 O6         -7.5480    4.2450   -1.3360 o         1 MOL     -0.593273
     42 C15        -7.7230    1.4260    0.7660 c3        1 MOL     -0.092436
     43 C16        -8.5360    0.1580    0.9040 c         1 MOL      0.628174
     44 O7         -8.6590   -0.6120   -0.1160 o         1 MOL     -0.707987
     45 O8         -9.1070   -0.0250    2.0280 o         1 MOL     -0.707987
     46 H19        -6.1240    0.2050   -0.6820 hn        1 MOL      0.245203
     47 H20        -8.3000    1.8730   -1.2740 h1        1 MOL      0.059190
     48 H21        -8.3320    2.2060    1.2220 hc        1 MOL      0.056053
     49 H22        -6.8870    1.2840    1.4630 hc        1 MOL      0.056053
     50 N4         -5.8490    3.8040    0.0050 n         1 MOL     -0.508756
     51 C17        -5.0500    3.0830    0.9140 c3        1 MOL     -0.156094
     52 C18        -5.2050    3.5490    2.3620 c         1 MOL      0.677045
     53 O9         -6.3660    3.8280    2.7830 o         1 MOL     -0.600606
     54 H23        -5.6560    4.7880   -0.1250 hn        1 MOL      0.319711
     55 H24        -3.9960    3.2730    0.7090 h1        1 MOL      0.108197
     56 H25        -5.1290    2.0050    0.8330 h1        1 MOL      0.108197
     57 N5         -4.1960    3.7470    3.1650 n         1 MOL     -0.635661
     58 C19        -2.8020    3.4010    2.9680 c3        1 MOL      0.594122
     59 C20        -2.6020    1.8450    3.0990 c         1 MOL      0.325240
     60 O10        -3.4570    1.2100    3.7130 o         1 MOL     -0.532546
     61 C21        -2.1080    4.1390    4.1940 c3        1 MOL     -0.368610
     62 C22        -2.3980    5.6780    4.1230 c         1 MOL      0.704377
     63 O11        -2.3070    6.3800    5.1980 o         1 MOL     -0.712755
     64 O12        -2.4770    6.2020    3.0070 o         1 MOL     -0.712755
     65 H26        -4.3770    4.1690    4.0720 hn        1 MOL      0.313798
     66 H27        -2.3410    3.8900    2.1120 h1        1 MOL     -0.077049
     67 H28        -1.0480    3.8950    4.1210 hc        1 MOL      0.057070
     68 H29        -2.3690    3.7480    5.1790 hc        1 MOL      0.057070
     69 N6         -1.5660    1.2670    2.5690 n         1 MOL     -0.442833
     70 C23        -0.4580    1.7790    1.6760 c3        1 MOL     -0.067511
     71 C24        -1.0190    2.1080    0.2810 c         1 MOL      0.736295
     72 O13        -2.1680    1.7990   -0.0520 o         1 MOL     -0.499613
     73 H30        -1.5540    0.2790    2.7510 hn        1 MOL      0.327630
     74 H31         0.3590    1.0560    1.6350 h1        1 MOL      0.066278
     75 H32        -0.1260    2.7660    2.0110 h1        1 MOL      0.066278
     76 N7         -0.1440    2.8210   -0.5010 n         1 MOL     -0.595799
     77 C25        -0.4550    3.3330   -1.8330 c3        1 MOL      0.095529
     78 C26         0.5360    2.9700   -2.9250 c         1 MOL      0.480016
     79 O14         0.7360    3.7460   -3.8560 o         1 MOL     -0.527771
     80 C27        -0.5430    4.8990   -1.6700 c3        1 MOL      0.042936
     81 C28         0.7340    5.4530   -1.0090 c3        1 MOL     -0.344142
     82 C29         0.8100    6.9590   -1.3920 c         1 MOL      0.706806
     83 N8          0.4800    7.9020   -0.5180 n         1 MOL     -0.833415
     84 O15         1.1050    7.2910   -2.5370 o         1 MOL     -0.571776
     85 H33         0.7650    2.9420   -0.0950 hn        1 MOL      0.270541
     86 H34        -1.4500    3.0120   -2.1460 h1        1 MOL      0.015613
     87 H35        -1.3660    5.1130   -0.9940 hc        1 MOL      0.039276
     88 H36        -0.7590    5.4510   -2.5810 hc        1 MOL      0.039276
     89 H37         1.5900    4.9270   -1.4210 hc        1 MOL      0.101930
     90 H38         0.5810    5.3390    0.0690 hc        1 MOL      0.101930
     91 H39         0.0740    7.6370    0.3670 hn        1 MOL      0.380027
     92 H40         0.2440    8.8380   -0.8480 hn        1 MOL      0.380027
     93 N9          1.1680    1.7900   -2.8350 n         1 MOL     -0.184582
     94 C30         2.2690    1.2850   -3.7110 c3        1 MOL     -0.068270
     95 C31         3.5800    1.5930   -3.0140 c         1 MOL      0.583544
     96 O16         3.6190    1.4440   -1.7880 o         1 MOL     -0.481548
     97 C32         2.1310   -0.2110   -3.9920 c3        1 MOL      0.145101
     98 C33         3.1490   -0.7320   -5.0020 c3        1 MOL     -0.214734
     99 C34         0.6950   -0.5160   -4.4870 c3        1 MOL     -0.214734
    100 H41         0.9450    1.1880   -2.0540 hn        1 MOL      0.174294
    101 H42         2.0960    1.8730   -4.6080 h1        1 MOL      0.043720
    102 H43         2.2480   -0.7590   -3.0480 hc        1 MOL      0.043518
    103 H44         4.1880   -0.6670   -4.6720 hc        1 MOL      0.049513
    104 H45         2.7340   -1.6630   -5.3650 hc        1 MOL      0.049513
    105 H46         3.1790   -0.0310   -5.8360 hc        1 MOL      0.049513
    106 H47        -0.0390   -0.1580   -3.7670 hc        1 MOL      0.049513
    107 H48         0.4710   -0.1670   -5.4870 hc        1 MOL      0.049513
    108 H49         0.5510   -1.5670   -4.7210 hc        1 MOL      0.049513
    109 N10         4.6630    1.9580   -3.8030 n         1 MOL     -0.598785
    110 C35         5.9900    2.3520   -3.3050 c3        1 MOL      0.328814
    111 C36         6.9190    1.2260   -2.5950 c         1 MOL      0.319964
    112 O17         8.0350    1.0410   -2.9880 o         1 MOL     -0.528237
    113 C37         5.8580    3.6180   -2.4680 c3        1 MOL     -0.372658
    114 C38         7.1180    4.2160   -1.8750 c         1 MOL      0.714703
    115 N11         8.3640    4.0660   -2.4110 n         1 MOL     -0.833157
    116 O18         7.0750    4.7890   -0.7990 o         1 MOL     -0.569774
    117 H50         4.6170    1.9370   -4.8110 hn        1 MOL      0.332728
    118 H51         6.6630    2.6110   -4.1250 h1        1 MOL     -0.014521
    119 H52         5.2110    3.3150   -1.6390 hc        1 MOL      0.125039
    120 H53         5.3460    4.3130   -3.1250 hc        1 MOL      0.125039
    121 H54         8.5180    3.4900   -3.2260 hn        1 MOL      0.368622
    122 H55         9.0930    4.1880   -1.7200 hn        1 MOL      0.368622
    123 N12         6.4370    0.5430   -1.4880 n         1 MOL     -0.125058
    124 C39         7.2210   -0.4010   -0.6630 c3        1 MOL      0.056422
    125 C40         6.2180   -1.3030    0.0910 c         1 MOL      0.350388
    126 O19         5.1250   -0.8420    0.3390 o         1 MOL     -0.442208
    127 C41         8.1620    0.1970    0.3610 c3        1 MOL     -0.071622
    128 C42         7.6230    0.7670    1.6760 ca        1 MOL     -0.017255
    129 C43         6.8370    1.8810    1.6670 ca        1 MOL     -0.080141
    130 C44         7.9490    0.1370    2.8970 ca        1 MOL     -0.080141
    131 C45         6.3930    2.4660    2.8800 ca        1 MOL     -0.357229
    132 C46         7.5210    0.7060    4.1100 ca        1 MOL     -0.357229
    133 C47         6.7580    1.8740    4.1570 ca        1 MOL      0.360344
    134 O20         6.3240    2.3450    5.3830 oh        1 MOL     -0.441033
    135 H56         5.4580    0.5200   -1.2280 hn        1 MOL      0.146507
    136 H57         7.7100   -1.0980   -1.3470 h1        1 MOL      0.022841
    137 H58         8.7620    1.0140   -0.0350 hc        1 MOL      0.033941
    138 H59         8.9630   -0.5040    0.5600 hc        1 MOL      0.033941
    139 H60         6.5680    2.3690    0.7340 ha        1 MOL      0.123375
    140 H61         8.5100   -0.7830    2.9450 ha        1 MOL      0.123375
    141 H62         5.7200    3.3080    2.8160 ha        1 MOL      0.180706
    142 H63         7.6770    0.2470    5.0770 ha        1 MOL      0.180706
    143 H64         5.7260    3.0690    5.1690 ho        1 MOL      0.334468
    144 N13         6.6190   -2.5110    0.5210 n         1 MOL     -0.413368
    145 C48         5.9190   -3.4400    1.3330 c3        1 MOL     -0.192188
    146 C49         4.5200   -3.8890    0.8930 c         1 MOL      0.481341
    147 O21         3.8620   -4.6540    1.5970 o         1 MOL     -0.494854
    148 C50         6.0050   -3.0130    2.7930 c3        1 MOL      0.400974
    149 C51         5.1700   -1.8650    3.2880 c3        1 MOL     -0.274510
    150 C52         5.0700   -1.7800    4.8050 c         1 MOL      0.657267
    151 O22         3.8930   -2.0250    5.3580 o         1 MOL     -0.704926
    152 O23         6.0970   -1.7660    5.5380 o         1 MOL     -0.704926
    153 H65         7.5810   -2.7790    0.3210 hn        1 MOL      0.306711
    154 H66         6.4330   -4.3960    1.2400 h1        1 MOL      0.057106
    155 H67         7.0740   -2.9230    2.9780 hc        1 MOL     -0.067844
    156 H68         5.6920   -3.8750    3.3860 hc        1 MOL     -0.067844
    157 H69         4.1560   -1.8890    2.8880 hc        1 MOL      0.069291
    158 H70         5.6380   -0.9640    2.9000 hc        1 MOL      0.069291
    159 N14         4.0950   -3.6090   -0.3060 n         1 MOL     -0.217293
    160 C53         2.9370   -4.3320   -0.8790 c3        1 MOL     -0.221135
    161 C54         3.3210   -5.7910   -1.2630 c         1 MOL      0.474422
    162 O24         2.5380   -6.7410   -1.0520 o         1 MOL     -0.495930
    163 C55         2.1840   -3.5720   -2.0100 c3        1 MOL      0.016893
    164 C56         0.7030   -3.8180   -2.1110 c3        1 MOL      0.154040
    165 C57        -0.0670   -3.4960   -0.7940 c         1 MOL      0.693678
    166 O25        -0.1000   -4.2440    0.2390 o         1 MOL     -0.728060
    167 O26        -0.8320   -2.4800   -0.7430 o         1 MOL     -0.728060
    168 H71         4.7540   -3.1270   -0.9150 hn        1 MOL      0.194056
    169 H72         2.2170   -4.4950   -0.0830 h1        1 MOL      0.160027
    170 H73         2.7050   -3.7190   -2.9540 hc        1 MOL     -0.021195
    171 H74         2.2420   -2.5060   -1.8120 hc        1 MOL     -0.021195
    172 H75         0.5180   -4.8650   -2.3530 hc        1 MOL     -0.036677
    173 H76         0.2190   -3.2410   -2.8970 hc        1 MOL     -0.036677
    174 N15         4.5860   -5.9520   -1.7340 n         1 MOL     -0.242554
    175 C58         5.0820   -7.2240   -2.2790 c3        1 MOL     -0.160818
    176 H77         5.8590   -7.0250   -3.0170 h1        1 MOL      0.076493
    177 H78         5.4950   -7.8290   -1.4720 h1        1 MOL      0.076493
    178 H79         4.2620   -7.7620   -2.7540 h1        1 MOL      0.076493
    179 H80         5.1910   -5.1540   -1.8320 hn        1 MOL      0.215698
    180 Ca1        -2.3190   -3.2350    1.3970 Ca        1 MOL      1.778497
    181 O27        -2.9480   -0.6750    0.9590 oh        1 MOL     -0.851025
    182 H81        -3.8490   -0.7540    0.6770 ho        1 MOL      0.416720
    183 H82        -2.6560    0.1680    0.6080 ho        1 MOL      0.416720
    184 O28        -3.3460   -1.6230    3.6640 oh        1 MOL     -0.851025
    185 H83        -3.2700   -0.6800    3.5030 ho        1 MOL      0.416720
    186 H84        -3.1720   -1.7230    4.5940 ho        1 MOL      0.416720
    187 O29        -2.2130   -5.8050    1.5600 oh        1 MOL     -0.851025
    188 H85        -1.4270   -6.2680    1.8690 ho        1 MOL      0.416720
    189 H86        -2.9210   -6.4210    1.7200 ho        1 MOL      0.416720
    190 O30        -0.1650   -1.4070    2.1210 oh        1 MOL     -0.851025
    191 H87         0.3920   -0.9500    1.4870 ho        1 MOL      0.416720
    192 H88         0.4140   -1.6300    2.8340 ho        1 MOL      0.416720
    193 O31        -1.4130   -4.1460    3.7450 oh        1 MOL     -0.851025
    194 H89        -0.8830   -4.9460    3.7870 ho        1 MOL      0.416720
    195 H90        -1.2990   -3.7320    4.5980 ho        1 MOL      0.416720
@<TRIPOS>BOND
     1    1    2 1   
     2    1    4 1   
     3    1    5 1   
     4    1    6 1   
     5    2    3 2   
     6    2    7 1   
     7    7    8 1   
     8    7   15 1   
     9    8    9 1   
    10    8   11 1   
    11    8   16 1   
    12    9   10 2   
    13    9   19 1   
    14   11   12 1   
    15   11   17 1   
    16   11   18 1   
    17   12   13 1   
    18   12   14 1   
    19   19   20 1   
    20   19   27 1   
    21   20   21 1   
    22   20   23 1   
    23   20   28 1   
    24   21   22 2   
    25   21   38 1   
    26   23   24 1   
    27   23   25 1   
    28   23   29 1   
    29   24   26 1   
    30   24   30 1   
    31   24   31 1   
    32   25   32 1   
    33   25   33 1   
    34   25   34 1   
    35   26   35 1   
    36   26   36 1   
    37   26   37 1   
    38   38   39 1   
    39   38   46 1   
    40   39   40 1   
    41   39   42 1   
    42   39   47 1   
    43   40   41 2   
    44   40   50 1   
    45   42   43 1   
    46   42   48 1   
    47   42   49 1   
    48   43   44 1   
    49   43   45 1   
    50   50   51 1   
    51   50   54 1   
    52   51   52 1   
    53   51   55 1   
    54   51   56 1   
    55   52   53 2   
    56   52   57 1   
    57   57   58 1   
    58   57   65 1   
    59   58   59 1   
    60   58   61 1   
    61   58   66 1   
    62   59   60 2   
    63   59   69 1   
    64   61   62 1   
    65   61   67 1   
    66   61   68 1   
    67   62   63 1   
    68   62   64 1   
    69   69   70 1   
    70   69   73 1   
    71   70   71 1   
    72   70   74 1   
    73   70   75 1   
    74   71   72 2   
    75   71   76 1   
    76   76   77 1   
    77   76   85 1   
    78   77   78 1   
    79   77   80 1   
    80   77   86 1   
    81   78   79 2   
    82   78   93 1   
    83   80   81 1   
    84   80   87 1   
    85   80   88 1   
    86   81   82 1   
    87   81   89 1   
    88   81   90 1   
    89   82   83 1   
    90   82   84 2   
    91   83   91 1   
    92   83   92 1   
    93   93   94 1   
    94   93  100 1   
    95   94   95 1   
    96   94   97 1   
    97   94  101 1   
    98   95   96 2   
    99   95  109 1   
   100   97   98 1   
   101   97   99 1   
   102   97  102 1   
   103   98  103 1   
   104   98  104 1   
   105   98  105 1   
   106   99  106 1   
   107   99  107 1   
   108   99  108 1   
   109  109  110 1   
   110  109  117 1   
   111  110  111 1   
   112  110  113 1   
   113  110  118 1   
   114  111  112 2   
   115  111  123 1   
   116  113  114 1   
   117  113  119 1   
   118  113  120 1   
   119  114  115 1   
   120  114  116 2   
   121  115  121 1   
   122  115  122 1   
   123  123  124 1   
   124  123  135 1   
   125  124  125 1   
   126  124  127 1   
   127  124  136 1   
   128  125  126 2   
   129  125  144 1   
   130  127  128 1   
   131  127  137 1   
   132  127  138 1   
   133  128  129 ar  
   134  128  130 ar  
   135  129  131 ar  
   136  129  139 1   
   137  130  132 ar  
   138  130  140 1   
   139  131  133 ar  
   140  131  141 1   
   141  132  133 ar  
   142  132  142 1   
   143  133  134 1   
   144  134  143 1   
   145  144  145 1   
   146  144  153 1   
   147  145  146 1   
   148  145  148 1   
   149  145  154 1   
   150  146  147 2   
   151  146  159 1   
   152  148  149 1   
   153  148  155 1   
   154  148  156 1   
   155  149  150 1   
   156  149  157 1   
   157  149  158 1   
   158  150  151 1   
   159  150  152 1   
   160  159  160 1   
   161  159  168 1   
   162  160  161 1   
   163  160  163 1   
   164  160  169 1   
   165  161  162 2   
   166  161  174 1   
   167  163  164 1   
   168  163  170 1   
   169  163  171 1   
   170  164  165 1   
   171  164  172 1   
   172  164  173 1   
   173  165  166 1   
   174  165  167 1   
   175  174  175 1   
   176  174  179 1   
   177  175  176 1   
   178  175  177 1   
   179  175  178 1   
   180  181  182 1   
   181  181  183 1   
   182  184  185 1   
   183  184  186 1   
   184  187  188 1   
   185  187  189 1   
   186  190  191 1   
   187  190  192 1   
   188  193  194 1   
   189  193  195 1   
@<TRIPOS>SUBSTRUCTURE
     1 MOL         1 TEMP              0 ****  ****    0 ROOT
