@<TRIPOS>MOLECULE
MOL
  201   193     1     0     0
SMALL
resp


@<TRIPOS>ATOM
      1 C1        -11.4510    6.6740    1.8700 c3        1 MOL     -0.492721
      2 C2        -11.2710    5.1410    1.8720 c         1 MOL      0.767741
      3 O1        -11.5040    4.4820    2.8720 o         1 MOL     -0.636510
      4 H1        -10.7740    7.1200    2.5980 hc        1 MOL      0.120746
      5 H2        -11.2260    7.0650    0.8770 hc        1 MOL      0.120746
      6 H3        -12.4800    6.9190    2.1330 hc        1 MOL      0.120746
      7 N1        -11.0640    4.5900    0.7510 n         1 MOL     -0.319489
      8 C3        -10.8630    3.1350    0.4770 c3        1 MOL     -0.325226
      9 C4         -9.5790    2.6020    1.1360 c         1 MOL      0.304905
     10 O2         -8.4690    3.0820    0.8560 o         1 MOL     -0.442341
     11 C5        -10.9040    2.8910   -1.0790 c3        1 MOL      0.100927
     12 C6         -9.9650    3.8880   -1.8110 c         1 MOL      0.593971
     13 O3         -8.7490    3.6440   -1.8920 o         1 MOL     -0.676318
     14 O4        -10.4300    4.9090   -2.3570 o         1 MOL     -0.676318
     15 H4        -11.0180    5.2000   -0.0540 hn        1 MOL      0.219485
     16 H5        -11.7000    2.5620    0.8670 h1        1 MOL      0.175327
     17 H6        -11.9160    3.0180   -1.4730 hc        1 MOL      0.022084
     18 H7        -10.5680    1.8660   -1.2360 hc        1 MOL      0.022084
     19 N2         -9.6670    1.6040    2.0240 n         1 MOL     -0.166577
     20 C7         -8.4820    0.8710    2.5190 c3        1 MOL     -0.053711
     21 C8         -7.6490    0.3180    1.3400 c         1 MOL      0.389737
     22 O5         -6.4110    0.1840    1.4520 o         1 MOL     -0.547744
     23 C9         -8.9190   -0.2130    3.4620 c3        1 MOL     -0.090589
     24 C10        -7.7970   -1.1050    4.1430 c3        1 MOL     -0.082625
     25 C11        -6.7630   -0.4710    5.0870 c3        1 MOL      0.071858
     26 C12        -5.9010   -1.4890    5.8780 c3        1 MOL      0.083839
     27 N3         -4.6780   -0.9040    6.4520 n4        1 MOL     -0.298298
     28 H8        -10.5660    1.4580    2.4430 hn        1 MOL      0.249286
     29 H9         -7.8240    1.5210    3.0910 h1        1 MOL      0.056200
     30 H10        -9.5410   -0.8760    2.8600 hc        1 MOL      0.065599
     31 H11        -9.5400    0.2150    4.2460 hc        1 MOL      0.065599
     32 H12        -7.1520   -1.5660    3.4010 hc        1 MOL      0.063202
     33 H13        -8.3140   -1.8950    4.7010 hc        1 MOL      0.063202
     34 H14        -7.2300    0.1320    5.8620 hc        1 MOL     -0.013370
     35 H15        -6.1780    0.2970    4.5920 hc        1 MOL     -0.013370
     36 H16        -5.7830   -2.3960    5.2790 hx        1 MOL      0.055060
     37 H17        -6.4850   -1.7290    6.7700 hx        1 MOL      0.055060
     38 H18        -3.9910   -1.5900    6.7310 hn        1 MOL      0.263480
     39 H19        -4.1940   -0.3260    5.7850 hn        1 MOL      0.263480
     40 H20        -4.8770   -0.4540    7.3320 hn        1 MOL      0.263480
     41 N4         -8.3380   -0.0730    0.2140 n         1 MOL     -0.039609
     42 C13        -7.7990   -0.7180   -0.9860 c3        1 MOL      0.011289
     43 C14        -6.7250    0.1930   -1.6670 c         1 MOL      0.522490
     44 O6         -6.6650    1.4230   -1.4380 o         1 MOL     -0.606805
     45 C15        -8.8930   -0.9920   -2.1060 c3        1 MOL     -0.282827
     46 C16       -10.0930   -1.6810   -1.5060 c         1 MOL      0.692035
     47 O7        -10.9710   -0.9210   -0.9660 o         1 MOL     -0.668289
     48 O8        -10.0940   -2.9380   -1.4000 o         1 MOL     -0.668289
     49 H21        -9.3390   -0.0160    0.1520 hn        1 MOL      0.104364
     50 H22        -7.2690   -1.5990   -0.6280 h1        1 MOL      0.101590
     51 H23        -8.5730   -1.6770   -2.8860 hc        1 MOL      0.088437
     52 H24        -9.2350   -0.0960   -2.6220 hc        1 MOL      0.088437
     53 N5         -5.8840   -0.4480   -2.5370 n         1 MOL     -0.536370
     54 C17        -5.8370   -1.8720   -2.8420 c3        1 MOL     -0.136363
     55 C18        -5.1700   -2.7030   -1.8180 c         1 MOL      0.625791
     56 O9         -4.3210   -2.1960   -1.1120 o         1 MOL     -0.563443
     57 H25        -5.2760    0.2140   -2.9860 hn        1 MOL      0.370434
     58 H26        -5.1490   -2.0660   -3.6690 h1        1 MOL      0.109600
     59 H27        -6.7670   -2.3580   -3.1240 h1        1 MOL      0.109600
     60 N6         -5.5230   -3.9630   -1.7620 n         1 MOL     -0.340823
     61 C19        -4.9910   -4.9800   -0.8800 c3        1 MOL     -0.206784
     62 C20        -3.7980   -5.7260   -1.4840 c         1 MOL      0.612349
     63 O10        -3.2770   -6.6160   -0.8140 o         1 MOL     -0.490785
     64 C21        -6.1740   -5.9290   -0.6950 c3        1 MOL     -0.144348
     65 C22        -6.5870   -6.6700   -1.9960 c         1 MOL      0.679383
     66 O11        -6.6200   -6.0880   -3.1170 o         1 MOL     -0.622456
     67 O12        -6.8050   -7.9200   -1.9300 o         1 MOL     -0.622456
     68 H28        -6.1940   -4.2220   -2.4750 hn        1 MOL      0.179200
     69 H29        -4.8200   -4.5100    0.0890 h1        1 MOL      0.162729
     70 H30        -7.0000   -5.3510   -0.2800 hc        1 MOL      0.057630
     71 H31        -5.9790   -6.6940    0.0570 hc        1 MOL      0.057630
     72 N7         -3.2290   -5.2430   -2.6360 n         1 MOL     -0.360967
     73 C23        -1.9170   -5.7830   -3.0290 c3        1 MOL     -0.148873
     74 C24        -0.7830   -5.3180   -2.0440 c         1 MOL      0.437215
     75 O13         0.3240   -5.8760   -2.0290 o         1 MOL     -0.537761
     76 H32        -3.7580   -4.6520   -3.2630 hn        1 MOL      0.266491
     77 H33        -1.6600   -5.4440   -4.0380 h1        1 MOL      0.126644
     78 H34        -1.9580   -6.8700   -3.1030 h1        1 MOL      0.126644
     79 N8         -1.0470   -4.3780   -1.0760 n         1 MOL     -0.186004
     80 C25        -0.0630   -3.8540   -0.0890 c3        1 MOL     -0.039075
     81 C26         0.3280   -2.4150   -0.3430 c         1 MOL      0.567835
     82 O14        -0.3740   -1.6850   -1.0690 o         1 MOL     -0.521670
     83 C27        -0.5650   -4.0470    1.3660 c3        1 MOL      0.414216
     84 C28        -1.8560   -3.2390    1.6590 c3        1 MOL     -0.131814
     85 O15        -0.9750   -5.3630    1.5960 oh        1 MOL     -0.618340
     86 H35        -1.9470   -3.9250   -1.0900 hn        1 MOL      0.100464
     87 H36         0.8450   -4.4500   -0.0610 h1        1 MOL      0.033418
     88 H37         0.2710   -3.7540    2.0020 h1        1 MOL     -0.089346
     89 H38        -0.4040   -5.8940    1.0400 ho        1 MOL      0.399190
     90 H39        -1.7200   -2.1590    1.6050 hc        1 MOL      0.032812
     91 H40        -2.6100   -3.6640    1.0000 hc        1 MOL      0.032812
     92 H41        -2.0530   -3.4870    2.7040 hc        1 MOL      0.032812
     93 N9          1.4100   -1.9680    0.2700 n         1 MOL     -0.522124
     94 C29         1.9170   -0.6040    0.1260 c3        1 MOL     -0.038326
     95 C30         3.3320   -0.4880   -0.4410 c         1 MOL      0.687146
     96 O16         3.6500    0.3770   -1.2440 o         1 MOL     -0.561759
     97 C31         1.8850    0.0490    1.5150 c3        1 MOL     -0.010048
     98 C32         0.4270    0.0790    2.0150 c3        1 MOL      0.285770
     99 C33         2.4200    1.5060    1.5390 c3        1 MOL     -0.149599
    100 C34         0.2100    0.8190    3.3130 c3        1 MOL     -0.380008
    101 H42         1.8330   -2.6380    0.8940 hn        1 MOL      0.289614
    102 H43         1.2060   -0.0580   -0.5040 h1        1 MOL      0.094917
    103 H44         2.4400   -0.5240    2.2620 hc        1 MOL      0.004260
    104 H45        -0.0320   -0.8920    2.1990 hc        1 MOL     -0.035536
    105 H46        -0.1560    0.5920    1.2480 hc        1 MOL     -0.035536
    106 H47         1.8570    2.0870    0.8050 hc        1 MOL      0.041081
    107 H48         2.2710    2.0220    2.4870 hc        1 MOL      0.041081
    108 H49         3.4720    1.4950    1.2640 hc        1 MOL      0.041081
    109 H50        -0.6720    0.4300    3.8260 hc        1 MOL      0.076580
    110 H51         1.0630    0.7650    3.9910 hc        1 MOL      0.076580
    111 H52         0.0620    1.8770    3.0880 hc        1 MOL      0.076580
    112 N10         4.1410   -1.4190   -0.0620 n         1 MOL     -0.409010
    113 C35         5.5580   -1.5080   -0.3610 c3        1 MOL     -0.014140
    114 C36         6.4180   -1.6250    0.8980 c         1 MOL      0.657697
    115 O17         5.8750   -1.8880    2.0040 o         1 MOL     -0.549820
    116 C37         5.9120   -2.6390   -1.4340 c3        1 MOL      0.212629
    117 C38         5.7160   -4.0590   -1.0390 c3        1 MOL     -0.279981
    118 O18         5.1590   -2.2620   -2.5980 oh        1 MOL     -0.554781
    119 H53         3.8910   -2.1020    0.6300 hn        1 MOL      0.254020
    120 H54         6.0540   -0.6350   -0.7920 h1        1 MOL      0.098913
    121 H55         6.9670   -2.5930   -1.6730 h1        1 MOL      0.016449
    122 H56         5.2940   -2.9830   -3.2130 ho        1 MOL      0.393511
    123 H57         4.7010   -4.3880   -1.2630 hc        1 MOL      0.080755
    124 H58         6.4500   -4.7700   -1.4250 hc        1 MOL      0.080755
    125 H59         5.8130   -4.1860    0.0410 hc        1 MOL      0.080755
    126 N11         7.7870   -1.3810    0.8210 n         1 MOL     -0.659612
    127 C39         8.6350   -1.5030    2.0300 c3        1 MOL     -0.034676
    128 C40         9.8940   -0.6330    2.0460 c         1 MOL      0.637088
    129 O19        10.1620   -0.0000    3.0710 o         1 MOL     -0.562778
    130 C41         9.1450   -2.9240    2.1720 c3        1 MOL      0.388934
    131 C42         9.9310   -3.1480    3.5100 c3        1 MOL     -0.511144
    132 O20         9.8480   -3.3220    1.0400 oh        1 MOL     -0.652106
    133 H60         8.2140   -1.2240   -0.0720 hn        1 MOL      0.340369
    134 H61         8.0710   -1.2040    2.9110 h1        1 MOL      0.125452
    135 H62         8.2580   -3.5400    2.1450 h1        1 MOL     -0.005115
    136 H63         9.3270   -4.0220    0.6370 ho        1 MOL      0.412855
    137 H64         9.3470   -2.6680    4.3010 hc        1 MOL      0.140836
    138 H65         9.9460   -4.2380    3.5880 hc        1 MOL      0.140836
    139 H66        10.9110   -2.7150    3.3600 hc        1 MOL      0.140836
    140 N12        10.5350   -0.4020    0.8610 n         1 MOL     -0.444820
    141 C43        11.7740    0.4250    0.7210 c3        1 MOL     -0.025240
    142 C44        11.7200    1.0620   -0.6880 c         1 MOL      0.519399
    143 O21        11.3760    0.4350   -1.7260 o         1 MOL     -0.501798
    144 C45        13.0000   -0.4620    0.7770 c3        1 MOL     -0.052256
    145 C46        14.3280    0.3360    1.0160 c3        1 MOL     -0.167392
    146 C47        15.4670   -0.5890    1.4820 c3        1 MOL      0.254458
    147 C48        16.6980    0.0940    1.9180 c3        1 MOL      0.144827
    148 N13        17.8640   -0.8180    2.0590 n4        1 MOL     -0.391769
    149 H67        10.1680   -0.8440    0.0340 hn        1 MOL      0.268493
    150 H68        11.8490    1.1830    1.5060 h1        1 MOL      0.090578
    151 H69        13.1030   -1.0910   -0.1100 hc        1 MOL      0.064925
    152 H70        12.9040   -1.1680    1.5940 hc        1 MOL      0.064925
    153 H71        14.1220    0.9470    1.8950 hc        1 MOL      0.045633
    154 H72        14.5850    0.8750    0.1010 hc        1 MOL      0.045633
    155 H73        15.7460   -1.2880    0.7000 hc        1 MOL     -0.055894
    156 H74        15.0950   -1.1700    2.3270 hc        1 MOL     -0.055894
    157 H75        16.5390    0.6100    2.8690 hx        1 MOL      0.031336
    158 H76        16.8270    0.9010    1.2070 hx        1 MOL      0.031336
    159 H77        17.6530   -1.4650    2.8070 hn        1 MOL      0.285419
    160 H78        18.0510   -1.3120    1.1960 hn        1 MOL      0.285419
    161 H79        18.6490   -0.2230    2.2620 hn        1 MOL      0.285419
    162 N14        11.9240    2.3410   -0.7580 n         1 MOL     -0.487373
    163 C49        11.7070    3.0910   -1.9710 c3        1 MOL      0.362235
    164 C50        10.2370    2.9690   -2.3640 c         1 MOL      0.277221
    165 O22         9.9480    2.3110   -3.3560 o         1 MOL     -0.514709
    166 C51        12.3380    4.4890   -1.7390 c3        1 MOL      0.053301
    167 C52        13.8120    4.3710   -1.8480 c3        1 MOL     -0.093213
    168 C53        14.5280    5.7400   -1.8880 c         1 MOL      0.667748
    169 O23        15.1470    6.1450   -2.8630 o         1 MOL     -0.644988
    170 O24        14.3510    6.5450   -0.9230 o         1 MOL     -0.644988
    171 H80        11.9110    2.8150    0.1320 hn        1 MOL      0.297926
    172 H81        12.2320    2.6870   -2.8440 h1        1 MOL      0.046671
    173 H82        12.2020    4.9520   -0.7580 hc        1 MOL     -0.010130
    174 H83        12.0470    5.1530   -2.5500 hc        1 MOL     -0.010130
    175 H84        14.0710    3.6960   -2.6640 hc        1 MOL     -0.037815
    176 H85        14.1560    3.8730   -0.9490 hc        1 MOL     -0.037815
    177 N15         9.1980    3.4490   -1.7110 n         1 MOL     -0.305638
    178 C54         9.1590    4.3280   -0.5140 c3        1 MOL     -0.144095
    179 H86         8.5790    5.2220   -0.7390 h1        1 MOL      0.071325
    180 H87         8.6940    3.7930    0.3150 h1        1 MOL      0.071325
    181 H88        10.1740    4.6140   -0.2380 h1        1 MOL      0.071325
    182 H89         8.3030    3.1230   -2.0360 hn        1 MOL      0.301761
    183 Ca1        -6.4170    4.0500   -0.9330 Ca        1 MOL      1.715118
    184 O25        -5.6350    3.1230    1.6660 oh        1 MOL     -0.803244
    185 H90        -5.3130    3.1170    2.5700 ho        1 MOL      0.401475
    186 H91        -5.9810    2.2410    1.5330 ho        1 MOL      0.401475
    187 O26        -7.2220    6.1510    0.5780 oh        1 MOL     -0.803244
    188 H92        -7.1550    7.0080    0.1550 ho        1 MOL      0.401475
    189 H93        -7.2230    6.3470    1.5190 ho        1 MOL      0.401475
    190 O27        -5.4960    3.7880   -3.2510 oh        1 MOL     -0.803244
    191 H94        -5.7590    4.0870   -4.1180 ho        1 MOL      0.401475
    192 H95        -4.9650    3.0050   -3.4300 ho        1 MOL      0.401475
    193 O28        -3.7950    2.8090   -0.7650 oh        1 MOL     -0.803244
    194 H96        -3.1470    3.0170   -1.4370 ho        1 MOL      0.401475
    195 H97        -3.3490    3.0060    0.0580 ho        1 MOL      0.401475
    196 O29        -6.1250    6.4550   -2.1880 oh        1 MOL     -0.803244
    197 H98        -5.9370    7.2350   -1.6660 ho        1 MOL      0.401475
    198 H99        -5.7320    6.6340   -3.0400 ho        1 MOL      0.401475
    199 O30        -4.3360    5.7370   -0.3580 oh        1 MOL     -0.803244
    200 H100       -3.7150    5.8070   -1.0800 ho        1 MOL      0.401475
    201 H101       -4.4360    6.6400   -0.0430 ho        1 MOL      0.401475
@<TRIPOS>BOND
     1    1    2 1   
     2    1    4 1   
     3    1    5 1   
     4    1    6 1   
     5    2    3 2   
     6    2    7 1   
     7    7    8 1   
     8    7   15 1   
     9    8    9 1   
    10    8   11 1   
    11    8   16 1   
    12    9   10 2   
    13    9   19 1   
    14   11   12 1   
    15   11   17 1   
    16   11   18 1   
    17   12   13 1   
    18   12   14 1   
    19   19   20 1   
    20   19   28 1   
    21   20   21 1   
    22   20   23 1   
    23   20   29 1   
    24   21   22 2   
    25   21   41 1   
    26   23   24 1   
    27   23   30 1   
    28   23   31 1   
    29   24   25 1   
    30   24   32 1   
    31   24   33 1   
    32   25   26 1   
    33   25   34 1   
    34   25   35 1   
    35   26   27 1   
    36   26   36 1   
    37   26   37 1   
    38   27   38 1   
    39   27   39 1   
    40   27   40 1   
    41   41   42 1   
    42   41   49 1   
    43   42   43 1   
    44   42   45 1   
    45   42   50 1   
    46   43   44 2   
    47   43   53 1   
    48   45   46 1   
    49   45   51 1   
    50   45   52 1   
    51   46   47 1   
    52   46   48 1   
    53   53   54 1   
    54   53   57 1   
    55   54   55 1   
    56   54   58 1   
    57   54   59 1   
    58   55   56 2   
    59   55   60 1   
    60   60   61 1   
    61   60   68 1   
    62   61   62 1   
    63   61   64 1   
    64   61   69 1   
    65   62   63 2   
    66   62   72 1   
    67   64   65 1   
    68   64   70 1   
    69   64   71 1   
    70   65   66 1   
    71   65   67 1   
    72   72   73 1   
    73   72   76 1   
    74   73   74 1   
    75   73   77 1   
    76   73   78 1   
    77   74   75 2   
    78   74   79 1   
    79   79   80 1   
    80   79   86 1   
    81   80   81 1   
    82   80   83 1   
    83   80   87 1   
    84   81   82 2   
    85   81   93 1   
    86   83   84 1   
    87   83   85 1   
    88   83   88 1   
    89   84   90 1   
    90   84   91 1   
    91   84   92 1   
    92   85   89 1   
    93   93   94 1   
    94   93  101 1   
    95   94   95 1   
    96   94   97 1   
    97   94  102 1   
    98   95   96 2   
    99   95  112 1   
   100   97   98 1   
   101   97   99 1   
   102   97  103 1   
   103   98  100 1   
   104   98  104 1   
   105   98  105 1   
   106   99  106 1   
   107   99  107 1   
   108   99  108 1   
   109  100  109 1   
   110  100  110 1   
   111  100  111 1   
   112  112  113 1   
   113  112  119 1   
   114  113  114 1   
   115  113  116 1   
   116  113  120 1   
   117  114  115 2   
   118  114  126 1   
   119  116  117 1   
   120  116  118 1   
   121  116  121 1   
   122  117  123 1   
   123  117  124 1   
   124  117  125 1   
   125  118  122 1   
   126  126  127 1   
   127  126  133 1   
   128  127  128 1   
   129  127  130 1   
   130  127  134 1   
   131  128  129 2   
   132  128  140 1   
   133  130  131 1   
   134  130  132 1   
   135  130  135 1   
   136  131  137 1   
   137  131  138 1   
   138  131  139 1   
   139  132  136 1   
   140  140  141 1   
   141  140  149 1   
   142  141  142 1   
   143  141  144 1   
   144  141  150 1   
   145  142  143 2   
   146  142  162 1   
   147  144  145 1   
   148  144  151 1   
   149  144  152 1   
   150  145  146 1   
   151  145  153 1   
   152  145  154 1   
   153  146  147 1   
   154  146  155 1   
   155  146  156 1   
   156  147  148 1   
   157  147  157 1   
   158  147  158 1   
   159  148  159 1   
   160  148  160 1   
   161  148  161 1   
   162  162  163 1   
   163  162  171 1   
   164  163  164 1   
   165  163  166 1   
   166  163  172 1   
   167  164  165 2   
   168  164  177 1   
   169  166  167 1   
   170  166  173 1   
   171  166  174 1   
   172  167  168 1   
   173  167  175 1   
   174  167  176 1   
   175  168  169 1   
   176  168  170 1   
   177  177  178 1   
   178  177  182 1   
   179  178  179 1   
   180  178  180 1   
   181  178  181 1   
   182  184  185 1   
   183  184  186 1   
   184  187  188 1   
   185  187  189 1   
   186  190  191 1   
   187  190  192 1   
   188  193  194 1   
   189  193  195 1   
   190  196  197 1   
   191  196  198 1   
   192  199  200 1   
   193  199  201 1   
@<TRIPOS>SUBSTRUCTURE
     1 MOL         1 TEMP              0 ****  ****    0 ROOT
