@<TRIPOS>MOLECULE
MOL
  201   193     1     0     0
SMALL
resp


@<TRIPOS>ATOM
      1 C1         -3.1230   -4.2260   -0.3490 c3        1 MOL     -0.359593
      2 C2         -1.9430   -3.3030   -0.4610 c         1 MOL      0.718008
      3 O1         -1.9960   -2.1140   -0.0640 o         1 MOL     -0.654649
      4 H1         -3.0670   -4.7740    0.5920 hc        1 MOL      0.081015
      5 H2         -4.0450   -3.6440   -0.3750 hc        1 MOL      0.081015
      6 H3         -3.1140   -4.9320   -1.1800 hc        1 MOL      0.081015
      7 N1         -0.7640   -3.6080   -0.9700 n         1 MOL     -0.319888
      8 C3         -0.2800   -4.8360   -1.5340 c3        1 MOL     -0.071531
      9 C4          0.2360   -5.8920   -0.5630 c         1 MOL      0.485952
     10 O2          0.1650   -7.0700   -0.8890 o         1 MOL     -0.576415
     11 C5          0.8680   -4.6140   -2.4620 c3        1 MOL     -0.342577
     12 C6          0.5140   -3.4420   -3.3680 c         1 MOL      0.728708
     13 O3          0.7850   -2.2290   -3.0670 o         1 MOL     -0.663810
     14 O4         -0.0180   -3.7590   -4.4960 o         1 MOL     -0.663810
     15 H4         -0.1360   -2.8080   -1.0420 hn        1 MOL      0.236005
     16 H5         -1.0670   -5.2750   -2.1580 h1        1 MOL      0.097421
     17 H6          0.9350   -5.4350   -3.1880 hc        1 MOL      0.117231
     18 H7          1.7890   -4.2760   -1.9880 hc        1 MOL      0.117231
     19 N2          0.5650   -5.4180    0.6140 n         1 MOL     -0.028322
     20 C7          1.1340   -6.3040    1.6980 c3        1 MOL     -0.150249
     21 C8          2.6580   -6.4570    1.5420 c         1 MOL      0.449605
     22 O5          3.2670   -7.5410    1.8080 o         1 MOL     -0.538894
     23 C9          0.7100   -5.7610    3.0840 c3        1 MOL      0.103544
     24 C10         1.0330   -4.2280    3.4020 c3        1 MOL      0.034553
     25 C11        -0.7210   -6.0930    3.3930 c3        1 MOL     -0.144068
     26 C12         0.6440   -3.9280    4.8670 c3        1 MOL     -0.107185
     27 H8          0.6770   -4.4190    0.6620 hn        1 MOL     -0.053124
     28 H9          0.7070   -7.3070    1.7210 h1        1 MOL      0.105295
     29 H10         1.2840   -6.3760    3.7790 hc        1 MOL      0.020231
     30 H11         0.4500   -3.5370    2.8020 hc        1 MOL      0.002359
     31 H12         2.0670   -4.0360    3.1170 hc        1 MOL      0.002359
     32 H13        -0.9220   -6.0280    4.4620 hc        1 MOL      0.025773
     33 H14        -1.3760   -5.4680    2.7740 hc        1 MOL      0.025773
     34 H15        -0.9760   -7.0760    3.0000 hc        1 MOL      0.025773
     35 H16        -0.4260   -3.9360    5.0480 hc        1 MOL      0.018448
     36 H17         1.1340   -4.6570    5.5110 hc        1 MOL      0.018448
     37 H18         1.0530   -2.9610    5.1530 hc        1 MOL      0.018448
     38 N3          3.3280   -5.3960    1.0660 n         1 MOL     -0.211970
     39 C13         4.7000   -5.3960    0.5280 c3        1 MOL     -0.063677
     40 C14         5.0150   -4.3360   -0.4970 c         1 MOL      0.426710
     41 O6          4.5750   -3.2260   -0.6170 o         1 MOL     -0.422129
     42 C15         5.7290   -5.2720    1.7180 c3        1 MOL     -0.108175
     43 C16         7.1330   -5.7410    1.3920 c         1 MOL      0.643873
     44 O7          7.4890   -6.0740    0.2080 o         1 MOL     -0.648260
     45 O8          7.9420   -5.6730    2.3420 o         1 MOL     -0.648260
     46 H19         2.8570   -4.5110    0.9680 hn        1 MOL      0.157654
     47 H20         4.9120   -6.3550    0.0690 h1        1 MOL      0.085805
     48 H21         5.3930   -5.8740    2.5650 hc        1 MOL      0.040223
     49 H22         5.7630   -4.2390    2.0550 hc        1 MOL      0.040223
     50 N4          5.7530   -4.8110   -1.5770 n         1 MOL     -0.275871
     51 C17         5.9060   -4.1360   -2.8920 c3        1 MOL     -0.288809
     52 C18         6.7290   -2.8560   -2.7870 c         1 MOL      0.649896
     53 O9          6.8600   -2.1220   -3.7730 o         1 MOL     -0.592784
     54 H23         6.0580   -5.7680   -1.5520 hn        1 MOL      0.243545
     55 H24         4.9470   -3.8480   -3.3220 h1        1 MOL      0.135659
     56 H25         6.4300   -4.7830   -3.6060 h1        1 MOL      0.135659
     57 N5          7.4130   -2.6390   -1.6790 n         1 MOL     -0.493863
     58 C19         8.0070   -1.3880   -1.2160 c3        1 MOL      0.150830
     59 C20         7.7180   -1.0800    0.3110 c         1 MOL      0.429065
     60 O10         8.0290   -1.8720    1.1910 o         1 MOL     -0.466460
     61 C21         9.6000   -1.4530   -1.3820 c3        1 MOL     -0.092814
     62 C22        10.2560   -0.2240   -0.7800 c         1 MOL      0.714766
     63 O11        11.4510   -0.3250   -0.3730 o         1 MOL     -0.664376
     64 O12         9.7410    0.8830   -1.0740 o         1 MOL     -0.664376
     65 H26         7.3930   -3.3240   -0.9360 hn        1 MOL      0.302328
     66 H27         7.6360   -0.5910   -1.8540 h1        1 MOL      0.045497
     67 H28         9.8930   -1.6090   -2.4250 hc        1 MOL      0.015550
     68 H29         9.8920   -2.3460   -0.8280 hc        1 MOL      0.015550
     69 N6          7.1590    0.0910    0.6880 n         1 MOL     -0.491608
     70 C23         6.8050    1.2180   -0.1690 c3        1 MOL      0.119636
     71 C24         7.0370    2.5260    0.5450 c         1 MOL      0.507833
     72 O13         7.3780    2.5290    1.7550 o         1 MOL     -0.579512
     73 H30         6.9080    0.2850    1.6500 hn        1 MOL      0.294904
     74 H31         5.7380    1.2880   -0.3850 h1        1 MOL      0.052320
     75 H32         7.4050    1.2960   -1.0690 h1        1 MOL      0.052320
     76 N7          6.9120    3.6810   -0.0720 n         1 MOL     -0.384288
     77 C25         6.4760    4.0010   -1.4330 c3        1 MOL     -0.018901
     78 C26         5.1430    3.2990   -1.7300 c         1 MOL      0.583664
     79 O14         5.1140    2.5270   -2.6370 o         1 MOL     -0.536622
     80 C27         7.6090    3.8870   -2.4300 c3        1 MOL     -0.168915
     81 C28         8.8160    4.6710   -2.0120 c3        1 MOL     -0.103694
     82 C29         8.8290    6.1720   -1.9730 c         1 MOL      0.664269
     83 N8          9.7590    6.7670   -1.2910 n         1 MOL     -0.822559
     84 O15         8.1210    6.8800   -2.6980 o         1 MOL     -0.599807
     85 H33         7.0260    4.4500    0.5870 hn        1 MOL      0.237859
     86 H34         6.0630    5.0000   -1.4980 h1        1 MOL      0.070689
     87 H35         7.2820    4.3340   -3.3740 hc        1 MOL      0.094565
     88 H36         7.9650    2.8670   -2.5610 hc        1 MOL      0.094565
     89 H37         9.6230    4.4540   -2.7250 hc        1 MOL      0.068152
     90 H38         9.1890    4.2970   -1.0550 hc        1 MOL      0.068152
     91 H39        10.2320    6.2450   -0.5750 hn        1 MOL      0.362766
     92 H40         9.8740    7.7640   -1.4520 hn        1 MOL      0.362766
     93 N9          4.1340    3.3830   -0.8900 n         1 MOL     -0.399274
     94 C30         2.9460    2.5100   -0.8220 c3        1 MOL     -0.189770
     95 C31         2.5440    2.1530    0.6850 c         1 MOL      0.633537
     96 O16         2.7960    2.8590    1.6880 o         1 MOL     -0.592229
     97 C32         1.7620    3.0320   -1.6190 c3        1 MOL      0.305770
     98 C33         2.0150    3.0020   -3.1140 c3        1 MOL     -0.245342
     99 C34         1.3180    4.3820   -1.2970 c3        1 MOL     -0.245342
    100 H41         4.1440    4.2090   -0.3060 hn        1 MOL      0.226225
    101 H42         3.1640    1.5370   -1.2580 h1        1 MOL      0.156675
    102 H43         0.8930    2.4190   -1.3970 hc        1 MOL     -0.020770
    103 H44         1.1130    3.2510   -3.6720 hc        1 MOL      0.064143
    104 H45         2.7350    3.7550   -3.4190 hc        1 MOL      0.064143
    105 H46         2.2580    1.9730   -3.3880 hc        1 MOL      0.064143
    106 H47         0.5720    4.7950   -1.9780 hc        1 MOL      0.064143
    107 H48         0.9180    4.4090   -0.2820 hc        1 MOL      0.064143
    108 H49         2.2190    4.9870   -1.3740 hc        1 MOL      0.064143
    109 N10         1.7070    1.1440    0.8020 n         1 MOL     -0.515240
    110 C35         1.3940    0.6630    2.1750 c3        1 MOL     -0.015683
    111 C36         0.2620    1.4300    2.9060 c         1 MOL      0.485825
    112 O17        -0.1710    1.0280    4.0060 o         1 MOL     -0.562589
    113 C37         1.0450   -0.8360    1.9750 c3        1 MOL     -0.286185
    114 C38         1.9930   -1.6340    1.0340 c         1 MOL      0.378643
    115 N11         3.2830   -1.5900    1.3060 n         1 MOL     -0.559888
    116 O18         1.5610   -2.4990    0.2620 o         1 MOL     -0.340136
    117 H50         1.1470    0.7640    0.0610 hn        1 MOL      0.364939
    118 H51         2.2550    0.6870    2.8470 h1        1 MOL      0.131077
    119 H52        -0.0070   -1.0000    1.7730 hc        1 MOL      0.147295
    120 H53         1.2630   -1.2300    2.9690 hc        1 MOL      0.147295
    121 H54         3.6180   -0.9990    2.0480 hn        1 MOL      0.310767
    122 H55         4.0090   -2.0450    0.7640 hn        1 MOL      0.310767
    123 N12        -0.3880    2.3180    2.1840 n         1 MOL     -0.143263
    124 C39        -1.6170    2.9660    2.5910 c3        1 MOL     -0.049307
    125 C40        -2.4230    3.5950    1.4150 c         1 MOL      0.527923
    126 O19        -1.7890    3.9240    0.4050 o         1 MOL     -0.444807
    127 C41        -1.2250    4.0530    3.5130 c3        1 MOL      0.029606
    128 C42        -0.4460    5.1320    2.8030 ca        1 MOL      0.116181
    129 C43        -1.0880    6.2020    2.0720 ca        1 MOL     -0.266192
    130 C44         0.9580    5.1060    2.8570 ca        1 MOL     -0.266192
    131 C45        -0.3250    7.2640    1.5470 ca        1 MOL     -0.169924
    132 C46         1.7140    6.0650    2.2170 ca        1 MOL     -0.169924
    133 C47         1.0550    7.1540    1.6520 ca        1 MOL      0.226287
    134 O20         1.7820    8.1800    1.2160 oh        1 MOL     -0.458432
    135 H56        -0.0510    2.6770    1.3010 hn        1 MOL      0.102970
    136 H57        -2.1900    2.2380    3.1620 h1        1 MOL      0.078953
    137 H58        -0.5840    3.6930    4.3170 hc        1 MOL     -0.012037
    138 H59        -2.1240    4.5770    3.8400 hc        1 MOL     -0.012037
    139 H60        -2.1650    6.2280    1.9910 ha        1 MOL      0.175808
    140 H61         1.3530    4.2670    3.4060 ha        1 MOL      0.175808
    141 H62        -0.7440    8.1370    1.0730 ha        1 MOL      0.157794
    142 H63         2.7940    6.0400    2.2570 ha        1 MOL      0.157794
    143 H64         2.6910    8.0070    1.4900 ho        1 MOL      0.327484
    144 N13        -3.7340    3.7120    1.5790 n         1 MOL     -0.586866
    145 C48        -4.5900    4.0630    0.4930 c3        1 MOL      0.150068
    146 C49        -5.7550    3.1180    0.4810 c         1 MOL      0.537562
    147 O21        -6.9030    3.3610    0.9140 o         1 MOL     -0.507073
    148 C50        -5.0830    5.5900    0.5290 c3        1 MOL     -0.056955
    149 C51        -5.6160    6.0580   -0.8410 c3        1 MOL      0.004522
    150 C52        -5.3920    7.5830   -0.8840 c         1 MOL      0.618110
    151 O22        -6.3950    8.3210   -0.6270 o         1 MOL     -0.683249
    152 O23        -4.2540    8.0390   -1.2470 o         1 MOL     -0.683249
    153 H65        -4.1390    3.3480    2.4270 hn        1 MOL      0.333721
    154 H66        -4.1230    3.8940   -0.4790 h1        1 MOL      0.050814
    155 H67        -4.1690    6.1560    0.6840 hc        1 MOL      0.027306
    156 H68        -5.7960    5.7830    1.3280 hc        1 MOL      0.027306
    157 H69        -6.6810    5.8500   -0.9310 hc        1 MOL     -0.030187
    158 H70        -5.1250    5.5440   -1.6630 hc        1 MOL     -0.030187
    159 N14        -5.5830    1.9130   -0.1630 n         1 MOL     -0.556282
    160 C53        -6.4630    0.7980   -0.1690 c3        1 MOL     -0.220562
    161 C54        -6.3350    0.0190    1.1400 c         1 MOL      0.675913
    162 O24        -7.3490   -0.3820    1.7420 o         1 MOL     -0.574756
    163 C55        -6.3050   -0.1210   -1.4390 c3        1 MOL      0.292082
    164 C56        -7.0130   -1.4890   -1.3570 c3        1 MOL     -0.993076
    165 C57        -8.5400   -1.4650   -1.3640 c         1 MOL      0.938926
    166 O25        -9.1680   -0.5090   -1.8460 o         1 MOL     -0.644790
    167 O26        -9.1690   -2.5610   -1.0420 o         1 MOL     -0.644790
    168 H71        -4.6040    1.8120   -0.3900 hn        1 MOL      0.295701
    169 H72        -7.4540    1.2500   -0.2080 h1        1 MOL      0.176955
    170 H73        -5.2260   -0.2300   -1.5880 hc        1 MOL      0.027627
    171 H74        -6.6300    0.4290   -2.3180 hc        1 MOL      0.027627
    172 H75        -6.6280   -2.0920   -0.5400 hc        1 MOL      0.239304
    173 H76        -6.6210   -2.0780   -2.1870 hc        1 MOL      0.239304
    174 N15        -5.1290   -0.1550    1.6190 n         1 MOL     -0.326617
    175 C58        -4.7370   -0.5620    2.9840 c3        1 MOL     -0.343967
    176 H77        -4.6080   -1.6450    3.0170 h1        1 MOL      0.141638
    177 H78        -3.7990   -0.0770    3.2530 h1        1 MOL      0.141638
    178 H79        -5.5150   -0.2680    3.6900 h1        1 MOL      0.141638
    179 H80        -4.3570    0.1550    1.0360 hn        1 MOL      0.259799
    180 Ca1       -11.5560   -1.4840   -0.9510 Ca        1 MOL      1.705798
    181 O27       -13.5080   -0.3210    0.5790 oh        1 MOL     -0.851623
    182 H81       -14.2880    0.2100    0.3800 ho        1 MOL      0.375374
    183 H82       -13.5220   -0.4160    1.5350 ho        1 MOL      0.375374
    184 O28       -11.4140   -3.0070    1.2170 oh        1 MOL     -0.851623
    185 H83       -11.1030   -3.9050    1.3150 ho        1 MOL      0.375374
    186 H84       -12.1600   -2.9530    1.8140 ho        1 MOL      0.375374
    187 O29       -11.1170   -2.4410   -3.3870 oh        1 MOL     -0.851623
    188 H85       -10.2210   -2.7400   -3.5540 ho        1 MOL      0.375374
    189 H86       -11.3810   -2.0070   -4.1970 ho        1 MOL      0.375374
    190 O30       -10.5290    0.2250    0.8700 oh        1 MOL     -0.851623
    191 H87       -10.7330    0.7110    1.6770 ho        1 MOL      0.375374
    192 H88        -9.7340    0.6400    0.5310 ho        1 MOL      0.375374
    193 O31       -12.3380   -3.9920   -1.5140 oh        1 MOL     -0.851623
    194 H89       -12.3850   -4.6410   -0.8090 ho        1 MOL      0.375374
    195 H90       -12.6720   -4.4570   -2.2850 ho        1 MOL      0.375374
    196 O32       -11.5000    0.3460   -2.8400 oh        1 MOL     -0.851623
    197 H91       -10.5390    0.2870   -2.9060 ho        1 MOL      0.375374
    198 H92       -11.7670    0.8380   -3.6090 ho        1 MOL      0.375374
    199 O33       -13.6930   -1.5620   -2.5020 oh        1 MOL     -0.851623
    200 H93       -14.4120   -1.0020   -2.8080 ho        1 MOL      0.375374
    201 H94       -13.7830   -2.3630   -3.0020 ho        1 MOL      0.375374
@<TRIPOS>BOND
     1    1    2 1   
     2    1    4 1   
     3    1    5 1   
     4    1    6 1   
     5    2    3 2   
     6    2    7 1   
     7    7    8 1   
     8    7   15 1   
     9    8    9 1   
    10    8   11 1   
    11    8   16 1   
    12    9   10 2   
    13    9   19 1   
    14   11   12 1   
    15   11   17 1   
    16   11   18 1   
    17   12   13 1   
    18   12   14 1   
    19   19   20 1   
    20   19   27 1   
    21   20   21 1   
    22   20   23 1   
    23   20   28 1   
    24   21   22 2   
    25   21   38 1   
    26   23   24 1   
    27   23   25 1   
    28   23   29 1   
    29   24   26 1   
    30   24   30 1   
    31   24   31 1   
    32   25   32 1   
    33   25   33 1   
    34   25   34 1   
    35   26   35 1   
    36   26   36 1   
    37   26   37 1   
    38   38   39 1   
    39   38   46 1   
    40   39   40 1   
    41   39   42 1   
    42   39   47 1   
    43   40   41 2   
    44   40   50 1   
    45   42   43 1   
    46   42   48 1   
    47   42   49 1   
    48   43   44 1   
    49   43   45 1   
    50   50   51 1   
    51   50   54 1   
    52   51   52 1   
    53   51   55 1   
    54   51   56 1   
    55   52   53 2   
    56   52   57 1   
    57   57   58 1   
    58   57   65 1   
    59   58   59 1   
    60   58   61 1   
    61   58   66 1   
    62   59   60 2   
    63   59   69 1   
    64   61   62 1   
    65   61   67 1   
    66   61   68 1   
    67   62   63 1   
    68   62   64 1   
    69   69   70 1   
    70   69   73 1   
    71   70   71 1   
    72   70   74 1   
    73   70   75 1   
    74   71   72 2   
    75   71   76 1   
    76   76   77 1   
    77   76   85 1   
    78   77   78 1   
    79   77   80 1   
    80   77   86 1   
    81   78   79 2   
    82   78   93 1   
    83   80   81 1   
    84   80   87 1   
    85   80   88 1   
    86   81   82 1   
    87   81   89 1   
    88   81   90 1   
    89   82   83 1   
    90   82   84 2   
    91   83   91 1   
    92   83   92 1   
    93   93   94 1   
    94   93  100 1   
    95   94   95 1   
    96   94   97 1   
    97   94  101 1   
    98   95   96 2   
    99   95  109 1   
   100   97   98 1   
   101   97   99 1   
   102   97  102 1   
   103   98  103 1   
   104   98  104 1   
   105   98  105 1   
   106   99  106 1   
   107   99  107 1   
   108   99  108 1   
   109  109  110 1   
   110  109  117 1   
   111  110  111 1   
   112  110  113 1   
   113  110  118 1   
   114  111  112 2   
   115  111  123 1   
   116  113  114 1   
   117  113  119 1   
   118  113  120 1   
   119  114  115 1   
   120  114  116 2   
   121  115  121 1   
   122  115  122 1   
   123  123  124 1   
   124  123  135 1   
   125  124  125 1   
   126  124  127 1   
   127  124  136 1   
   128  125  126 2   
   129  125  144 1   
   130  127  128 1   
   131  127  137 1   
   132  127  138 1   
   133  128  129 ar  
   134  128  130 ar  
   135  129  131 ar  
   136  129  139 1   
   137  130  132 ar  
   138  130  140 1   
   139  131  133 ar  
   140  131  141 1   
   141  132  133 ar  
   142  132  142 1   
   143  133  134 1   
   144  134  143 1   
   145  144  145 1   
   146  144  153 1   
   147  145  146 1   
   148  145  148 1   
   149  145  154 1   
   150  146  147 2   
   151  146  159 1   
   152  148  149 1   
   153  148  155 1   
   154  148  156 1   
   155  149  150 1   
   156  149  157 1   
   157  149  158 1   
   158  150  151 1   
   159  150  152 1   
   160  159  160 1   
   161  159  168 1   
   162  160  161 1   
   163  160  163 1   
   164  160  169 1   
   165  161  162 2   
   166  161  174 1   
   167  163  164 1   
   168  163  170 1   
   169  163  171 1   
   170  164  165 1   
   171  164  172 1   
   172  164  173 1   
   173  165  166 1   
   174  165  167 1   
   175  174  175 1   
   176  174  179 1   
   177  175  176 1   
   178  175  177 1   
   179  175  178 1   
   180  181  182 1   
   181  181  183 1   
   182  184  185 1   
   183  184  186 1   
   184  187  188 1   
   185  187  189 1   
   186  190  191 1   
   187  190  192 1   
   188  193  194 1   
   189  193  195 1   
   190  196  197 1   
   191  196  198 1   
   192  199  200 1   
   193  199  201 1   
@<TRIPOS>SUBSTRUCTURE
     1 MOL         1 TEMP              0 ****  ****    0 ROOT
