@<TRIPOS>MOLECULE
MOL
  181   177     1     0     0
SMALL
resp


@<TRIPOS>ATOM
      1 C1          2.8030   -2.6750    4.1260 c3        1 MOL     -0.358137
      2 C2          3.9560   -1.8010    3.7120 c         1 MOL      0.749508
      3 O1          3.7050   -0.6380    3.3050 o         1 MOL     -0.647308
      4 H1          2.0720   -2.0790    4.6720 hc        1 MOL      0.086090
      5 H2          2.3330   -3.1010    3.2400 hc        1 MOL      0.086090
      6 H3          3.1670   -3.4790    4.7670 hc        1 MOL      0.086090
      7 N1          5.1970   -2.2360    3.8230 n         1 MOL     -0.495281
      8 C3          6.2970   -1.3250    3.3510 c3        1 MOL      0.001153
      9 C4          6.5060   -1.4150    1.7660 c         1 MOL      0.794914
     10 O2          6.5830   -2.4780    1.2050 o         1 MOL     -0.549975
     11 C5          7.6460   -1.6910    4.0130 c3        1 MOL     -0.142886
     12 C6          8.2380   -3.0180    3.4980 c         1 MOL      0.667840
     13 O3          9.4320   -2.9890    3.0320 o         1 MOL     -0.705605
     14 O4          7.5870   -4.0530    3.8040 o         1 MOL     -0.705605
     15 H4          5.4240   -3.1020    4.2770 hn        1 MOL      0.301631
     16 H5          6.0360   -0.3260    3.6690 h1        1 MOL      0.058556
     17 H6          7.5410   -1.6670    5.0950 hc        1 MOL      0.008943
     18 H7          8.2950   -0.8650    3.6990 hc        1 MOL      0.008943
     19 N2          6.7220   -0.3090    1.0600 n         1 MOL     -0.743362
     20 C7          6.7770   -0.2700   -0.4330 c3        1 MOL      0.521848
     21 C8          5.5110    0.2020   -1.1370 c         1 MOL      0.459156
     22 O5          4.5650    0.6190   -0.4880 o         1 MOL     -0.510104
     23 C9          8.0500    0.6420   -0.7450 c3        1 MOL     -0.290397
     24 H8          6.5720    0.5850    1.4940 hn        1 MOL      0.310911
     25 H9          7.0960   -1.2490   -0.7930 h1        1 MOL     -0.012274
     26 H10         8.2870    0.9050   -1.7760 hc        1 MOL      0.059987
     27 H11         7.9710    1.5940   -0.2220 hc        1 MOL      0.059987
     28 H12         8.9130    0.0720   -0.4000 hc        1 MOL      0.059987
     29 N3          5.5070    0.1150   -2.4660 n         1 MOL     -0.826165
     30 C10         4.3770    0.5310   -3.2380 c3        1 MOL      0.391485
     31 C11         4.4630    1.8640   -3.9180 c         1 MOL      0.467682
     32 O6          3.5350    2.1090   -4.7020 o         1 MOL     -0.533023
     33 C12         3.9470   -0.6110   -4.1460 c3        1 MOL     -0.440398
     34 C13         3.7780   -1.8860   -3.3670 c         1 MOL      1.091784
     35 O7          4.3580   -2.9270   -3.7490 o         1 MOL     -0.825894
     36 O8          2.9290   -2.0520   -2.4750 o         1 MOL     -0.825894
     37 H13         6.2350   -0.4740   -2.8540 hn        1 MOL      0.345867
     38 H14         3.5190    0.6850   -2.5800 h1        1 MOL      0.075814
     39 H15         4.7360   -0.7920   -4.8880 hc        1 MOL      0.079660
     40 H16         2.9890   -0.3690   -4.6040 hc        1 MOL      0.079660
     41 N4          5.3650    2.8270   -3.6090 n         1 MOL     -0.360067
     42 C14         5.3070    4.1960   -4.1090 c3        1 MOL     -0.200839
     43 C15         4.1280    5.0640   -3.7680 c         1 MOL      0.494382
     44 O9          4.0570    6.1430   -4.4030 o         1 MOL     -0.539970
     45 H17         6.0580    2.6000   -2.9070 hn        1 MOL      0.279572
     46 H18         5.3800    4.0040   -5.1810 h1        1 MOL      0.113657
     47 H19         6.2380    4.6950   -3.8390 h1        1 MOL      0.113657
     48 N5          3.2530    4.6480   -2.9100 n         1 MOL     -0.202996
     49 C16         2.0080    5.3270   -2.4260 c3        1 MOL     -0.043260
     50 C17         1.5230    5.0960   -1.0100 c         1 MOL      0.446083
     51 O10         1.5970    3.9540   -0.5010 o         1 MOL     -0.434974
     52 C18         0.8980    4.9280   -3.4090 c3        1 MOL     -0.092903
     53 C19         0.9640    5.3550   -4.8130 c         1 MOL      0.732454
     54 N6          0.5880    4.5100   -5.7350 n         1 MOL     -0.818421
     55 O11         1.1630    6.5270   -5.0720 o         1 MOL     -0.600249
     56 H20         3.4520    3.7990   -2.3930 hn        1 MOL      0.196196
     57 H21         2.1740    6.4020   -2.4280 h1        1 MOL      0.036975
     58 H22        -0.0810    5.3230   -3.1430 hc        1 MOL      0.044851
     59 H23         0.8090    3.8410   -3.4160 hc        1 MOL      0.044851
     60 H24         0.3370    3.5520   -5.5310 hn        1 MOL      0.367125
     61 H25         0.5430    4.8960   -6.6670 hn        1 MOL      0.367125
     62 N7          1.0950    6.1680   -0.3800 n         1 MOL     -0.385775
     63 C20         0.7160    6.1800    1.0240 c3        1 MOL     -0.121210
     64 C21        -0.7580    5.9610    1.2140 c         1 MOL      0.490563
     65 O12        -1.4460    5.3540    0.4080 o         1 MOL     -0.435028
     66 H26         1.0110    7.0690   -0.8410 hn        1 MOL      0.315066
     67 H27         1.0100    7.1260    1.4660 h1        1 MOL      0.099770
     68 H28         1.2650    5.3960    1.5460 h1        1 MOL      0.099770
     69 N8         -1.2490    6.4250    2.3850 n         1 MOL     -0.249691
     70 C22        -2.6710    6.4230    2.7090 c3        1 MOL     -0.639362
     71 C23        -3.2810    5.0450    2.8960 c         1 MOL      0.611578
     72 O13        -4.4450    4.8680    2.5560 o         1 MOL     -0.563652
     73 C24        -2.9560    7.4340    3.8440 c3        1 MOL      0.639516
     74 C25        -2.4740    7.0830    5.2520 c3        1 MOL     -0.409527
     75 O14        -2.4240    8.7050    3.5690 oh        1 MOL     -0.659174
     76 H29        -0.5720    6.7890    3.0300 hn        1 MOL      0.238135
     77 H30        -3.2100    6.7580    1.8240 h1        1 MOL      0.240239
     78 H31        -4.0240    7.6410    3.8950 h1        1 MOL      0.016485
     79 H32        -1.4730    8.6500    3.6150 ho        1 MOL      0.376521
     80 H33        -1.6760    6.3440    5.1560 hc        1 MOL      0.089739
     81 H34        -2.1370    8.0390    5.6330 hc        1 MOL      0.089739
     82 H35        -3.3580    6.7430    5.7850 hc        1 MOL      0.089739
     83 N9         -2.5150    3.9970    3.2380 n         1 MOL     -0.213375
     84 C26        -2.9570    2.6140    3.2880 c3        1 MOL     -0.055216
     85 C27        -1.9900    1.6140    2.6210 c         1 MOL      0.497617
     86 O15        -0.7520    1.8440    2.6340 o         1 MOL     -0.496079
     87 C28        -3.3580    2.1450    4.7250 c3        1 MOL      0.082594
     88 C29        -2.3350    2.4430    5.8470 c3        1 MOL      0.190139
     89 C30        -4.8110    2.5830    4.9950 c3        1 MOL     -0.228365
     90 C31        -2.4600    1.3760    7.0170 c3        1 MOL     -0.216647
     91 H36        -1.5600    4.2650    3.4760 hn        1 MOL      0.160943
     92 H37        -3.8870    2.6120    2.7190 h1        1 MOL      0.097413
     93 H38        -3.4090    1.0590    4.7180 hc        1 MOL      0.001617
     94 H39        -2.3870    3.4660    6.2030 hc        1 MOL     -0.026244
     95 H40        -1.3250    2.2640    5.4790 hc        1 MOL     -0.026244
     96 H41        -4.8150    3.6740    4.9420 hc        1 MOL      0.048404
     97 H42        -5.5170    2.2310    4.2540 hc        1 MOL      0.048404
     98 H43        -5.1850    2.2290    5.9570 hc        1 MOL      0.048404
     99 H44        -3.4670    1.4570    7.4310 hc        1 MOL      0.043435
    100 H45        -2.1940    0.4110    6.5930 hc        1 MOL      0.043435
    101 H46        -1.7620    1.6650    7.8100 hc        1 MOL      0.043435
    102 N10        -2.5260    0.5420    2.0410 n         1 MOL     -0.543174
    103 C32        -1.7300   -0.3180    1.1210 c3        1 MOL      0.449762
    104 C33        -2.5870   -0.7600   -0.0440 c         1 MOL      0.380162
    105 O16        -2.5430   -1.8740   -0.5850 o         1 MOL     -0.368815
    106 C34        -0.9910   -1.5290    1.7690 c3        1 MOL     -0.449351
    107 C35        -0.0200   -2.3000    0.8450 c         1 MOL      0.773698
    108 O17         0.4690   -3.3860    1.2080 o         1 MOL     -0.705864
    109 O18         0.3980   -1.8290   -0.2250 o         1 MOL     -0.705864
    110 H47        -3.5260    0.3900    2.0560 hn        1 MOL      0.279537
    111 H48        -0.9790    0.3050    0.6320 h1        1 MOL      0.034109
    112 H49        -1.7230   -2.2670    2.0990 hc        1 MOL      0.101846
    113 H50        -0.4080   -1.1030    2.5800 hc        1 MOL      0.101846
    114 N11        -3.5320    0.0470   -0.4820 n         1 MOL     -0.509126
    115 C36        -4.6310   -0.2650   -1.4260 c3        1 MOL      0.325749
    116 C37        -5.2570   -1.5780   -0.9870 c         1 MOL      0.227176
    117 O19        -5.5490   -1.8310    0.2150 o         1 MOL     -0.487478
    118 C38        -5.5890    0.9240   -1.5300 c3        1 MOL     -0.269119
    119 C39        -6.7060    0.7920   -2.4950 ca        1 MOL      0.170194
    120 C40        -6.4350    0.8120   -3.8800 ca        1 MOL     -0.223901
    121 C41        -7.9410    0.4160   -1.9780 ca        1 MOL     -0.223901
    122 C42        -7.4670    0.4960   -4.7430 ca        1 MOL     -0.071277
    123 C43        -8.9360    0.2070   -2.8890 ca        1 MOL     -0.071277
    124 C44        -8.8040    0.2420   -4.2810 ca        1 MOL     -0.165923
    125 H51        -3.7020    0.8720    0.0730 hn        1 MOL      0.222198
    126 H52        -4.1840   -0.4150   -2.4090 h1        1 MOL      0.025373
    127 H53        -4.9630    1.7350   -1.9020 hc        1 MOL      0.099608
    128 H54        -5.9740    1.1440   -0.5310 hc        1 MOL      0.099608
    129 H55        -5.4940    1.0880   -4.3310 ha        1 MOL      0.151239
    130 H56        -8.1300    0.2260   -0.9280 ha        1 MOL      0.151239
    131 H57        -7.2490    0.4570   -5.7970 ha        1 MOL      0.090464
    132 H58        -9.9330   -0.0530   -2.5660 ha        1 MOL      0.090464
    133 H59        -9.5720    0.0250   -5.0080 ha        1 MOL      0.121809
    134 N12        -5.7290   -2.4670   -1.9560 n         1 MOL      0.064770
    135 C45        -6.5640   -3.6270   -1.5530 c3        1 MOL     -0.028916
    136 C46        -5.8680   -4.4920   -0.5170 c         1 MOL      0.304498
    137 O20        -6.5080   -5.1130    0.3620 o         1 MOL     -0.504731
    138 C47        -6.7160   -4.4790   -2.8720 c3        1 MOL      0.014790
    139 C48        -5.6880   -3.9740   -3.7730 c3        1 MOL      0.102012
    140 C49        -5.5840   -2.5210   -3.4220 c3        1 MOL     -0.287956
    141 H60        -7.5720   -3.3700   -1.2230 h1        1 MOL      0.070301
    142 H61        -6.5930   -5.5540   -2.8460 hc        1 MOL      0.007436
    143 H62        -7.6710   -4.3280   -3.3720 hc        1 MOL      0.007436
    144 H63        -4.7740   -4.5050   -3.4950 hc        1 MOL     -0.000072
    145 H64        -5.9330   -4.1190   -4.8180 hc        1 MOL     -0.000072
    146 H65        -4.6040   -2.1490   -3.7310 h1        1 MOL      0.099882
    147 H66        -6.4200   -2.0230   -3.9100 h1        1 MOL      0.099882
    148 N13        -4.5550   -4.6620   -0.5950 n         1 MOL     -0.133321
    149 C50        -3.7290   -5.3820    0.3910 c3        1 MOL     -0.246476
    150 C51        -4.1120   -5.0880    1.8470 c         1 MOL      0.516340
    151 O21        -4.3800   -6.0250    2.6130 o         1 MOL     -0.549665
    152 C52        -2.2720   -5.1960    0.1640 c3        1 MOL      0.156954
    153 C53        -1.6180   -5.5970   -1.1950 c3        1 MOL     -0.184888
    154 C54        -0.1360   -5.3150   -1.2400 c         1 MOL      0.685271
    155 O22         0.7450   -5.9640   -0.6370 o         1 MOL     -0.731740
    156 O23         0.2110   -4.2640   -1.8820 o         1 MOL     -0.731740
    157 H67        -4.0440   -4.2060   -1.3420 hn        1 MOL      0.221512
    158 H68        -3.9260   -6.4420    0.2450 h1        1 MOL      0.108437
    159 H69        -1.7650   -5.7570    0.9560 hc        1 MOL     -0.006789
    160 H70        -1.9340   -4.1830    0.3790 hc        1 MOL     -0.006789
    161 H71        -2.1190   -5.2320   -2.0910 hc        1 MOL      0.010702
    162 H72        -1.6410   -6.6860   -1.1720 hc        1 MOL      0.010702
    163 N14        -4.1910   -3.8200    2.3150 n         1 MOL     -0.133182
    164 C55        -4.6040   -3.4700    3.6850 c3        1 MOL     -0.506032
    165 H73        -5.5740   -3.9190    3.8970 h1        1 MOL      0.162878
    166 H74        -3.8670   -3.8470    4.3940 h1        1 MOL      0.162878
    167 H75        -4.6770   -2.3860    3.7780 h1        1 MOL      0.162878
    168 H76        -4.0720   -3.0690    1.6510 hn        1 MOL      0.252857
    169 Ca1         2.3620   -3.7280   -0.5500 Ca        1 MOL      1.854646
    170 O24         3.2500   -1.3450    0.6990 oh        1 MOL     -0.930090
    171 H77         3.2290   -0.9490    1.5640 ho        1 MOL      0.429128
    172 H78         3.4390   -0.6100    0.1090 ho        1 MOL      0.429128
    173 O25         3.3180   -5.0620   -2.5900 oh        1 MOL     -0.930090
    174 H79         3.7910   -5.8330   -2.8970 ho        1 MOL      0.429128
    175 H80         3.7900   -4.3150   -2.9660 ho        1 MOL      0.429128
    176 O26         5.1250   -3.6290   -0.6650 oh        1 MOL     -0.930090
    177 H81         5.8320   -3.9480   -1.2290 ho        1 MOL      0.429128
    178 H82         5.5780   -3.1820    0.0560 ho        1 MOL      0.429128
    179 O27         3.5060   -5.0160    1.5900 oh        1 MOL     -0.930090
    180 H83         4.4430   -4.9600    1.7880 ho        1 MOL      0.429128
    181 H84         3.1910   -5.7100    2.1590 ho        1 MOL      0.429128
@<TRIPOS>BOND
     1    1    2 1   
     2    1    4 1   
     3    1    5 1   
     4    1    6 1   
     5    2    3 2   
     6    2    7 1   
     7    7    8 1   
     8    7   15 1   
     9    8    9 1   
    10    8   11 1   
    11    8   16 1   
    12    9   10 2   
    13    9   19 1   
    14   11   12 1   
    15   11   17 1   
    16   11   18 1   
    17   12   13 1   
    18   12   14 1   
    19   19   20 1   
    20   19   24 1   
    21   20   21 1   
    22   20   23 1   
    23   20   25 1   
    24   21   22 2   
    25   21   29 1   
    26   23   26 1   
    27   23   27 1   
    28   23   28 1   
    29   29   30 1   
    30   29   37 1   
    31   30   31 1   
    32   30   33 1   
    33   30   38 1   
    34   31   32 2   
    35   31   41 1   
    36   33   34 1   
    37   33   39 1   
    38   33   40 1   
    39   34   35 1   
    40   34   36 1   
    41   41   42 1   
    42   41   45 1   
    43   42   43 1   
    44   42   46 1   
    45   42   47 1   
    46   43   44 2   
    47   43   48 1   
    48   48   49 1   
    49   48   56 1   
    50   49   50 1   
    51   49   52 1   
    52   49   57 1   
    53   50   51 2   
    54   50   62 1   
    55   52   53 1   
    56   52   58 1   
    57   52   59 1   
    58   53   54 1   
    59   53   55 2   
    60   54   60 1   
    61   54   61 1   
    62   62   63 1   
    63   62   66 1   
    64   63   64 1   
    65   63   67 1   
    66   63   68 1   
    67   64   65 2   
    68   64   69 1   
    69   69   70 1   
    70   69   76 1   
    71   70   71 1   
    72   70   73 1   
    73   70   77 1   
    74   71   72 2   
    75   71   83 1   
    76   73   74 1   
    77   73   75 1   
    78   73   78 1   
    79   74   80 1   
    80   74   81 1   
    81   74   82 1   
    82   75   79 1   
    83   83   84 1   
    84   83   91 1   
    85   84   85 1   
    86   84   87 1   
    87   84   92 1   
    88   85   86 2   
    89   85  102 1   
    90   87   88 1   
    91   87   89 1   
    92   87   93 1   
    93   88   90 1   
    94   88   94 1   
    95   88   95 1   
    96   89   96 1   
    97   89   97 1   
    98   89   98 1   
    99   90   99 1   
   100   90  100 1   
   101   90  101 1   
   102  102  103 1   
   103  102  110 1   
   104  103  104 1   
   105  103  106 1   
   106  103  111 1   
   107  104  105 2   
   108  104  114 1   
   109  106  107 1   
   110  106  112 1   
   111  106  113 1   
   112  107  108 1   
   113  107  109 1   
   114  114  115 1   
   115  114  125 1   
   116  115  116 1   
   117  115  118 1   
   118  115  126 1   
   119  116  117 2   
   120  116  134 1   
   121  118  119 1   
   122  118  127 1   
   123  118  128 1   
   124  119  120 ar  
   125  119  121 ar  
   126  120  122 ar  
   127  120  129 1   
   128  121  123 ar  
   129  121  130 1   
   130  122  124 ar  
   131  122  131 1   
   132  123  124 ar  
   133  123  132 1   
   134  124  133 1   
   135  134  135 1   
   136  134  140 1   
   137  135  136 1   
   138  135  138 1   
   139  135  141 1   
   140  136  137 2   
   141  136  148 1   
   142  138  139 1   
   143  138  142 1   
   144  138  143 1   
   145  139  140 1   
   146  139  144 1   
   147  139  145 1   
   148  140  146 1   
   149  140  147 1   
   150  148  149 1   
   151  148  157 1   
   152  149  150 1   
   153  149  152 1   
   154  149  158 1   
   155  150  151 2   
   156  150  163 1   
   157  152  153 1   
   158  152  159 1   
   159  152  160 1   
   160  153  154 1   
   161  153  161 1   
   162  153  162 1   
   163  154  155 1   
   164  154  156 1   
   165  163  164 1   
   166  163  168 1   
   167  164  165 1   
   168  164  166 1   
   169  164  167 1   
   170  170  171 1   
   171  170  172 1   
   172  173  174 1   
   173  173  175 1   
   174  176  177 1   
   175  176  178 1   
   176  179  180 1   
   177  179  181 1   
@<TRIPOS>SUBSTRUCTURE
     1 MOL         1 TEMP              0 ****  ****    0 ROOT
