@<TRIPOS>MOLECULE
MOL
  189   185     1     0     0
SMALL
resp


@<TRIPOS>ATOM
      1 C1          6.1970    4.2570   -3.2160 c3        1 MOL     -0.271075
      2 C2          6.3620    3.0680   -2.1840 c         1 MOL      0.744524
      3 O1          5.4370    2.8760   -1.3720 o         1 MOL     -0.627443
      4 H1          6.0000    3.8520   -4.2090 hc        1 MOL      0.064418
      5 H2          5.3640    4.8910   -2.9110 hc        1 MOL      0.064418
      6 H3          7.1130    4.8460   -3.2410 hc        1 MOL      0.064418
      7 N1          7.5210    2.3900   -2.2410 n         1 MOL     -0.665205
      8 C3          7.9160    1.2250   -1.4280 c3        1 MOL      0.247627
      9 C4          6.7720    0.2570   -1.2310 c         1 MOL      0.103108
     10 O2          6.3210   -0.0510   -0.1560 o         1 MOL     -0.249715
     11 C5          8.7460    1.4160   -0.1260 c3        1 MOL     -0.131299
     12 C6          8.2550    2.5580    0.7670 c         1 MOL      0.753783
     13 O3          7.0650    2.6730    1.1120 o         1 MOL     -0.733882
     14 O4          9.0040    3.4190    1.1550 o         1 MOL     -0.733882
     15 H4          8.2280    2.6580   -2.9160 hn        1 MOL      0.328337
     16 H5          8.5910    0.6480   -2.0660 h1        1 MOL      0.021550
     17 H6          9.7550    1.7910   -0.3110 hc        1 MOL      0.016723
     18 H7          8.9010    0.5270    0.4910 hc        1 MOL      0.016723
     19 N2          6.4510   -0.3820   -2.3710 n         1 MOL     -0.306184
     20 C7          5.4360   -1.3810   -2.6170 c3        1 MOL      0.006737
     21 C8          5.6090   -2.8200   -1.9880 c         1 MOL      0.384081
     22 O5          5.4100   -3.8480   -2.6470 o         1 MOL     -0.554419
     23 C9          4.0030   -0.7680   -2.3600 c3        1 MOL      0.052632
     24 C10         2.9040   -1.8590   -2.4890 c3        1 MOL     -0.063564
     25 C11         3.7610    0.5650   -3.2060 c3        1 MOL      0.052680
     26 C12         2.6040   -2.5180   -3.8590 c3        1 MOL     -0.212446
     27 H8          7.0530   -0.1440   -3.1490 hn        1 MOL      0.250041
     28 H9          5.5640   -1.5560   -3.6800 h1        1 MOL      0.046524
     29 H10         3.9720   -0.4330   -1.3200 hc        1 MOL     -0.015518
     30 H11         1.9530   -1.4220   -2.1920 hc        1 MOL      0.089462
     31 H12         3.0990   -2.6520   -1.7740 hc        1 MOL      0.089462
     32 H13         4.3860    1.4160   -2.9460 hc        1 MOL     -0.040333
     33 H14         4.0260    0.2890   -4.2290 hc        1 MOL     -0.040333
     34 H15         2.7000    0.7990   -3.2240 hc        1 MOL     -0.040333
     35 H16         1.9730   -3.4090   -3.7820 hc        1 MOL      0.041029
     36 H17         2.2390   -1.7930   -4.5890 hc        1 MOL      0.041029
     37 H18         3.5480   -2.8160   -4.3130 hc        1 MOL      0.041029
     38 N3          5.8430   -2.7920   -0.6640 n         1 MOL     -0.037483
     39 C13         6.3090   -3.9570    0.0930 c3        1 MOL     -0.073428
     40 C14         5.2380   -5.0780    0.3990 c         1 MOL      0.675202
     41 O6          5.5900   -6.2350    0.2530 o         1 MOL     -0.594989
     42 C15         7.0780   -3.5030    1.3580 c3        1 MOL     -0.272298
     43 C16         7.9810   -2.2970    1.2110 c         1 MOL      0.806693
     44 O7          8.8860   -2.2740    0.3660 o         1 MOL     -0.728271
     45 O8          7.8560   -1.3700    2.0190 o         1 MOL     -0.728271
     46 H19         6.0280   -1.8980   -0.2400 hn        1 MOL      0.143651
     47 H20         7.0450   -4.3210   -0.6180 h1        1 MOL      0.058460
     48 H21         7.6140   -4.3120    1.8480 hc        1 MOL      0.076046
     49 H22         6.3030   -3.2550    2.0830 hc        1 MOL      0.076046
     50 N4          3.9070   -4.8630    0.7230 n         1 MOL     -0.648911
     51 C17         3.3790   -3.5640    1.1260 c3        1 MOL      0.021826
     52 C18         3.5960   -3.3620    2.5980 c         1 MOL      0.505296
     53 O9          4.2070   -4.1310    3.3070 o         1 MOL     -0.553212
     54 H23         3.3010   -5.6720    0.7730 hn        1 MOL      0.329966
     55 H24         2.2940   -3.6040    1.0050 h1        1 MOL      0.141017
     56 H25         3.8320   -2.7370    0.5850 h1        1 MOL      0.141017
     57 N5          3.1240   -2.2320    3.0660 n         1 MOL     -0.427237
     58 C19         2.0410   -1.3880    2.6360 c3        1 MOL      0.140047
     59 C20         2.3400   -0.7360    1.3090 c         1 MOL     -0.132627
     60 O10         3.4790   -0.3740    0.9880 o         1 MOL     -0.422695
     61 C21         1.7030   -0.3010    3.6530 c3        1 MOL     -0.224605
     62 C22         2.8510    0.7240    3.6810 c         1 MOL      0.762036
     63 O11         3.6900    0.6980    4.6510 o         1 MOL     -0.693482
     64 O12         2.8320    1.5970    2.7860 o         1 MOL     -0.693482
     65 H26         3.4670   -2.0630    4.0020 hn        1 MOL      0.288613
     66 H27         1.1050   -1.9490    2.6750 h1        1 MOL      0.043319
     67 H28         1.6110   -0.7220    4.6510 hc        1 MOL      0.081300
     68 H29         0.7520    0.1830    3.4390 hc        1 MOL      0.081300
     69 N6          1.2970   -0.5790    0.4790 n         1 MOL     -0.129281
     70 C23        -0.1540   -1.0930    0.6160 c3        1 MOL     -0.078606
     71 C24        -0.4450   -2.5330    0.0860 c         1 MOL      0.265163
     72 O13         0.3020   -3.0920   -0.7310 o         1 MOL     -0.450363
     73 H30         1.5780   -0.1580   -0.3980 hn        1 MOL      0.352881
     74 H31        -0.8100   -0.4070    0.0920 h1        1 MOL      0.095259
     75 H32        -0.5840   -0.9890    1.6180 h1        1 MOL      0.095259
     76 N7         -1.5590   -3.1060    0.6410 n         1 MOL     -0.237120
     77 C25        -2.1220   -4.3970    0.2370 c3        1 MOL     -0.044808
     78 C26        -2.5670   -4.4200   -1.2430 c         1 MOL      0.571665
     79 O14        -2.4170   -5.4070   -1.9230 o         1 MOL     -0.549844
     80 C27        -3.2020   -4.8620    1.1850 c3        1 MOL     -0.132421
     81 C28        -4.5340   -4.0040    1.2450 c3        1 MOL     -0.048590
     82 C29        -5.3200   -4.0930    2.5440 c         1 MOL      0.600691
     83 N8         -5.9660   -3.0360    2.9770 n         1 MOL     -0.766575
     84 O15        -5.3070   -5.0780    3.3370 o         1 MOL     -0.590137
     85 H33        -2.0320   -2.6400    1.3940 hn        1 MOL      0.255607
     86 H34        -1.2750   -5.0580    0.3810 h1        1 MOL      0.112185
     87 H35        -2.7540   -4.8810    2.1760 hc        1 MOL      0.061835
     88 H36        -3.5460   -5.8530    0.9040 hc        1 MOL      0.061835
     89 H37        -5.1410   -4.4490    0.4620 hc        1 MOL      0.043644
     90 H38        -4.2730   -2.9620    1.0590 hc        1 MOL      0.043644
     91 H39        -6.1420   -2.3490    2.2570 hn        1 MOL      0.376937
     92 H40        -6.4210   -3.0530    3.8840 hn        1 MOL      0.376937
     93 N9         -3.0530   -3.3220   -1.8090 n         1 MOL     -0.220597
     94 C30        -3.4930   -3.1970   -3.1780 c3        1 MOL     -0.298673
     95 C31        -4.7500   -2.4280   -3.3980 c         1 MOL      0.660256
     96 O16        -5.3340   -2.4450   -4.4990 o         1 MOL     -0.596262
     97 C32        -2.3670   -2.5480   -4.0890 c3        1 MOL      0.210706
     98 C33        -1.2500   -3.5200   -4.3950 c3        1 MOL     -0.240283
     99 C34        -1.8180   -1.3160   -3.3700 c3        1 MOL     -0.240283
    100 H41        -2.8430   -2.4730   -1.3080 hn        1 MOL      0.209143
    101 H42        -3.7280   -4.1580   -3.6210 h1        1 MOL      0.151779
    102 H43        -2.8960   -2.2360   -4.9890 hc        1 MOL      0.015897
    103 H44        -1.6380   -4.3750   -4.9430 hc        1 MOL      0.062238
    104 H45        -0.6640   -3.0590   -5.1900 hc        1 MOL      0.062238
    105 H46        -0.6510   -3.8190   -3.5320 hc        1 MOL      0.062238
    106 H47        -1.2310   -1.5250   -2.4800 hc        1 MOL      0.062238
    107 H48        -1.1470   -0.7490   -4.0160 hc        1 MOL      0.062238
    108 H49        -2.7140   -0.7370   -3.1250 hc        1 MOL      0.062238
    109 N10        -5.3070   -1.7900   -2.3990 n         1 MOL     -0.424930
    110 C35        -6.5680   -1.0090   -2.5180 c3        1 MOL      0.248073
    111 C36        -6.6310    0.3720   -1.8260 c         1 MOL      0.467888
    112 O17        -7.1460    1.3100   -2.4060 o         1 MOL     -0.547563
    113 C37        -7.6870   -1.9520   -2.1630 c3        1 MOL     -0.297753
    114 C38        -7.7540   -2.3740   -0.6800 c         1 MOL      0.534488
    115 N11        -8.9190   -2.7370   -0.1700 n         1 MOL     -0.635798
    116 O18        -6.8140   -2.1550    0.0930 o         1 MOL     -0.569223
    117 H50        -4.8360   -1.7610   -1.4950 hn        1 MOL      0.122332
    118 H51        -6.7440   -0.7410   -3.5590 h1        1 MOL      0.055917
    119 H52        -7.5130   -2.8160   -2.8090 hc        1 MOL      0.095368
    120 H53        -8.6590   -1.5280   -2.3810 hc        1 MOL      0.095368
    121 H54        -9.6300   -2.9270   -0.8650 hn        1 MOL      0.328658
    122 H55        -9.0110   -3.0110    0.7960 hn        1 MOL      0.328658
    123 N12        -6.0330    0.5420   -0.6120 n         1 MOL     -0.401549
    124 C39        -6.1080    1.8850    0.2000 c3        1 MOL      0.036374
    125 C40        -4.7050    2.5000    0.4100 c         1 MOL      0.632984
    126 O19        -3.6710    1.8960    0.1520 o         1 MOL     -0.545575
    127 C41        -6.8660    1.6310    1.4570 c3        1 MOL     -0.006061
    128 C42        -8.2990    1.2070    1.4020 ca        1 MOL      0.150701
    129 C43        -8.9290    0.4510    2.3750 ca        1 MOL     -0.212008
    130 C44        -9.1440    1.7230    0.3720 ca        1 MOL     -0.212008
    131 C45       -10.2910    0.1240    2.3850 ca        1 MOL     -0.202029
    132 C46       -10.5530    1.3620    0.4230 ca        1 MOL     -0.202029
    133 C47       -11.0790    0.4960    1.3380 ca        1 MOL      0.256303
    134 O20       -12.4310    0.1740    1.3400 oh        1 MOL     -0.484575
    135 H56        -5.5660   -0.2810   -0.2690 hn        1 MOL      0.309180
    136 H57        -6.6840    2.5840   -0.4090 h1        1 MOL      0.075217
    137 H58        -6.9350    2.5970    1.9700 hc        1 MOL      0.013503
    138 H59        -6.3280    0.9530    2.1290 hc        1 MOL      0.013503
    139 H60        -8.3310    0.0380    3.1790 ha        1 MOL      0.141492
    140 H61        -8.8430    2.5110   -0.3020 ha        1 MOL      0.141492
    141 H62       -10.6900   -0.4710    3.1890 ha        1 MOL      0.130048
    142 H63       -11.2030    1.8360   -0.3100 ha        1 MOL      0.130048
    143 H64       -12.9010    0.6040    0.6130 ho        1 MOL      0.338884
    144 N13        -4.5990    3.7330    0.8320 n         1 MOL     -0.747255
    145 C48        -3.4570    4.4450    1.3330 c3        1 MOL      0.478401
    146 C49        -2.4890    4.8380    0.2710 c         1 MOL      0.160634
    147 O21        -1.9340    5.9230    0.4010 o         1 MOL     -0.512039
    148 C50        -2.7830    3.6530    2.4640 c3        1 MOL     -0.006197
    149 C51        -3.7980    3.3340    3.5870 c3        1 MOL     -0.335762
    150 C52        -3.0420    2.3830    4.5640 c         1 MOL      0.685464
    151 O22        -2.3180    2.9500    5.3990 o         1 MOL     -0.711138
    152 O23        -3.1280    1.1210    4.6150 o         1 MOL     -0.711138
    153 H65        -5.4710    4.1830    1.0540 hn        1 MOL      0.321789
    154 H66        -3.7460    5.3710    1.8220 h1        1 MOL     -0.025551
    155 H67        -2.0920    4.3970    2.8520 hc        1 MOL      0.073357
    156 H68        -2.2730    2.7960    2.0310 hc        1 MOL      0.073357
    157 H69        -4.6900    2.8430    3.1850 hc        1 MOL      0.052174
    158 H70        -4.2260    4.2210    4.0580 hc        1 MOL      0.052174
    159 N14        -2.1310    4.0150   -0.7050 n         1 MOL     -0.069239
    160 C53        -1.0170    4.3840   -1.6440 c3        1 MOL     -0.276265
    161 C54        -1.4220    5.2540   -2.9350 c         1 MOL      0.500646
    162 O24        -0.5410    5.6650   -3.6680 o         1 MOL     -0.525342
    163 C55        -0.4940    2.9920   -2.0980 c3        1 MOL     -0.047298
    164 C56         0.2810    2.2660   -1.0180 c3        1 MOL      0.281370
    165 C57         1.6600    2.8940   -0.6100 c         1 MOL      0.535842
    166 O25         2.6620    2.1790   -0.5970 o         1 MOL     -0.604410
    167 O26         1.7070    4.0520   -0.1370 o         1 MOL     -0.604410
    168 H71        -2.6030    3.1250   -0.7180 hn        1 MOL      0.159341
    169 H72        -0.3160    5.0560   -1.1420 h1        1 MOL      0.200951
    170 H73         0.1300    3.2940   -2.9430 hc        1 MOL      0.010612
    171 H74        -1.2230    2.3940   -2.6280 hc        1 MOL      0.010612
    172 H75         0.4700    1.2500   -1.3830 hc        1 MOL     -0.114916
    173 H76        -0.4420    2.0990   -0.2160 hc        1 MOL     -0.114916
    174 N15        -2.7000    5.4630   -3.2230 n         1 MOL     -0.245216
    175 C58        -3.1880    6.3830   -4.3070 c3        1 MOL     -0.123400
    176 H77        -3.2500    5.8350   -5.2470 h1        1 MOL      0.068779
    177 H78        -4.1750    6.7650   -4.0440 h1        1 MOL      0.068779
    178 H79        -2.4930    7.2160   -4.4180 h1        1 MOL      0.068779
    179 H80        -3.3940    5.0140   -2.6450 hn        1 MOL      0.205527
    180 Ca1         4.6170    2.0310    0.9630 Ca        1 MOL      1.752904
    181 O27         4.1280    4.7210    0.6700 oh        1 MOL     -0.806355
    182 H81         4.4290    5.6280    0.7700 ho        1 MOL      0.373372
    183 H82         3.2580    4.8060    0.2740 ho        1 MOL      0.373372
    184 O28         6.0300    0.5390    2.6660 oh        1 MOL     -0.806355
    185 H83         6.1790    0.3680    3.5970 ho        1 MOL      0.373372
    186 H84         6.6960    0.0160    2.2080 ho        1 MOL      0.373372
    187 O29         4.9720    3.4770    3.5680 oh        1 MOL     -0.806355
    188 H85         5.8540    3.2260    3.8150 ho        1 MOL      0.373372
    189 H86         4.4070    2.8540    4.0330 ho        1 MOL      0.373372
@<TRIPOS>BOND
     1    1    2 1   
     2    1    4 1   
     3    1    5 1   
     4    1    6 1   
     5    2    3 2   
     6    2    7 1   
     7    7    8 1   
     8    7   15 1   
     9    8    9 1   
    10    8   11 1   
    11    8   16 1   
    12    9   10 2   
    13    9   19 1   
    14   11   12 1   
    15   11   17 1   
    16   11   18 1   
    17   12   13 1   
    18   12   14 1   
    19   19   20 1   
    20   19   27 1   
    21   20   21 1   
    22   20   23 1   
    23   20   28 1   
    24   21   22 2   
    25   21   38 1   
    26   23   24 1   
    27   23   25 1   
    28   23   29 1   
    29   24   26 1   
    30   24   30 1   
    31   24   31 1   
    32   25   32 1   
    33   25   33 1   
    34   25   34 1   
    35   26   35 1   
    36   26   36 1   
    37   26   37 1   
    38   38   39 1   
    39   38   46 1   
    40   39   40 1   
    41   39   42 1   
    42   39   47 1   
    43   40   41 2   
    44   40   50 1   
    45   42   43 1   
    46   42   48 1   
    47   42   49 1   
    48   43   44 1   
    49   43   45 1   
    50   50   51 1   
    51   50   54 1   
    52   51   52 1   
    53   51   55 1   
    54   51   56 1   
    55   52   53 2   
    56   52   57 1   
    57   57   58 1   
    58   57   65 1   
    59   58   59 1   
    60   58   61 1   
    61   58   66 1   
    62   59   60 2   
    63   59   69 1   
    64   61   62 1   
    65   61   67 1   
    66   61   68 1   
    67   62   63 1   
    68   62   64 1   
    69   69   70 1   
    70   69   73 1   
    71   70   71 1   
    72   70   74 1   
    73   70   75 1   
    74   71   72 2   
    75   71   76 1   
    76   76   77 1   
    77   76   85 1   
    78   77   78 1   
    79   77   80 1   
    80   77   86 1   
    81   78   79 2   
    82   78   93 1   
    83   80   81 1   
    84   80   87 1   
    85   80   88 1   
    86   81   82 1   
    87   81   89 1   
    88   81   90 1   
    89   82   83 1   
    90   82   84 2   
    91   83   91 1   
    92   83   92 1   
    93   93   94 1   
    94   93  100 1   
    95   94   95 1   
    96   94   97 1   
    97   94  101 1   
    98   95   96 2   
    99   95  109 1   
   100   97   98 1   
   101   97   99 1   
   102   97  102 1   
   103   98  103 1   
   104   98  104 1   
   105   98  105 1   
   106   99  106 1   
   107   99  107 1   
   108   99  108 1   
   109  109  110 1   
   110  109  117 1   
   111  110  111 1   
   112  110  113 1   
   113  110  118 1   
   114  111  112 2   
   115  111  123 1   
   116  113  114 1   
   117  113  119 1   
   118  113  120 1   
   119  114  115 1   
   120  114  116 2   
   121  115  121 1   
   122  115  122 1   
   123  123  124 1   
   124  123  135 1   
   125  124  125 1   
   126  124  127 1   
   127  124  136 1   
   128  125  126 2   
   129  125  144 1   
   130  127  128 1   
   131  127  137 1   
   132  127  138 1   
   133  128  129 ar  
   134  128  130 ar  
   135  129  131 ar  
   136  129  139 1   
   137  130  132 ar  
   138  130  140 1   
   139  131  133 ar  
   140  131  141 1   
   141  132  133 ar  
   142  132  142 1   
   143  133  134 1   
   144  134  143 1   
   145  144  145 1   
   146  144  153 1   
   147  145  146 1   
   148  145  148 1   
   149  145  154 1   
   150  146  147 2   
   151  146  159 1   
   152  148  149 1   
   153  148  155 1   
   154  148  156 1   
   155  149  150 1   
   156  149  157 1   
   157  149  158 1   
   158  150  151 1   
   159  150  152 1   
   160  159  160 1   
   161  159  168 1   
   162  160  161 1   
   163  160  163 1   
   164  160  169 1   
   165  161  162 2   
   166  161  174 1   
   167  163  164 1   
   168  163  170 1   
   169  163  171 1   
   170  164  165 1   
   171  164  172 1   
   172  164  173 1   
   173  165  166 1   
   174  165  167 1   
   175  174  175 1   
   176  174  179 1   
   177  175  176 1   
   178  175  177 1   
   179  175  178 1   
   180  181  182 1   
   181  181  183 1   
   182  184  185 1   
   183  184  186 1   
   184  187  188 1   
   185  187  189 1   
@<TRIPOS>SUBSTRUCTURE
     1 MOL         1 TEMP              0 ****  ****    0 ROOT
