@<TRIPOS>MOLECULE
MOL
  192   187     1     0     0
SMALL
resp


@<TRIPOS>ATOM
      1 C1          4.5580    0.3060    6.5010 c3        1 MOL     -0.358231
      2 C2          4.4860    0.5620    4.9670 c         1 MOL      0.623737
      3 O1          4.1830    1.6720    4.4950 o         1 MOL     -0.549185
      4 H1          4.8310    1.2310    7.0110 hc        1 MOL      0.099394
      5 H2          3.5860   -0.0320    6.8600 hc        1 MOL      0.099394
      6 H3          5.3070   -0.4570    6.7090 hc        1 MOL      0.099394
      7 N1          4.7400   -0.4430    4.1220 n         1 MOL     -0.479960
      8 C3          4.6400   -0.4270    2.6050 c3        1 MOL      0.046937
      9 C4          3.1970   -0.3310    2.1000 c         1 MOL      0.180949
     10 O2          3.0190    0.0030    0.8980 o         1 MOL     -0.432693
     11 C5          5.3170   -1.6450    1.9230 c3        1 MOL     -0.076399
     12 C6          4.9670   -2.9160    2.6120 c         1 MOL      0.697652
     13 O3          4.0710   -3.6350    2.0880 o         1 MOL     -0.717903
     14 O4          5.6110   -3.2010    3.6180 o         1 MOL     -0.717903
     15 H4          4.8640   -1.3660    4.5110 hn        1 MOL      0.297459
     16 H5          5.1410    0.4430    2.1770 h1        1 MOL      0.114269
     17 H6          6.4000   -1.5610    1.9250 hc        1 MOL      0.028195
     18 H7          4.9160   -1.8250    0.9290 hc        1 MOL      0.028195
     19 N2          2.1200   -0.5530    2.8950 n         1 MOL     -0.070251
     20 C7          0.7200   -0.6920    2.5010 c3        1 MOL     -0.087002
     21 C8         -0.0950    0.5590    2.9450 c         1 MOL      0.399363
     22 O5          0.0660    1.0010    4.0880 o         1 MOL     -0.524049
     23 C9          0.2150   -2.0220    3.1180 c3        1 MOL      0.276598
     24 C10         1.0880   -3.2120    2.7750 c3        1 MOL      0.022101
     25 C11         0.2580   -4.4830    2.7190 c3        1 MOL     -0.384736
     26 C12         1.1030   -5.4310    1.8680 c3        1 MOL      0.428770
     27 N3          0.4640   -6.7760    1.7490 n4        1 MOL     -0.519887
     28 H8          2.3600   -0.8260    3.8390 hn        1 MOL      0.189297
     29 H9          0.6300   -0.7790    1.4240 h1        1 MOL      0.129497
     30 H10        -0.7840   -2.2170    2.7140 hc        1 MOL     -0.044809
     31 H11         0.0920   -1.8940    4.1880 hc        1 MOL     -0.044809
     32 H12         1.9240   -3.1910    3.4800 hc        1 MOL      0.011079
     33 H13         1.4900   -3.0910    1.7610 hc        1 MOL      0.011079
     34 H14        -0.6440   -4.3320    2.1360 hc        1 MOL      0.097807
     35 H15         0.0700   -4.8300    3.7310 hc        1 MOL      0.097807
     36 H16         2.1040   -5.6510    2.2390 hx        1 MOL     -0.012860
     37 H17         1.3130   -4.9220    0.9200 hx        1 MOL     -0.012860
     38 H18         0.2620   -7.1630    2.6610 hn        1 MOL      0.347688
     39 H19        -0.4230   -6.7140    1.2700 hn        1 MOL      0.347688
     40 H20         1.1330   -7.3760    1.2980 hn        1 MOL      0.347688
     41 N4         -0.9630    1.1370    2.1080 n         1 MOL     -0.180588
     42 C13        -1.2920    0.9440    0.6760 c3        1 MOL     -0.138481
     43 C14        -1.7800   -0.5620    0.3910 c         1 MOL      0.001144
     44 O6         -1.1880   -1.2880   -0.4120 o         1 MOL     -0.257843
     45 C15        -0.1430    1.3230   -0.2870 c3        1 MOL      0.226630
     46 C16         0.1030    2.8150   -0.3080 c         1 MOL      0.328608
     47 O7         -0.6700    3.5680    0.3120 o         1 MOL     -0.651185
     48 O8          1.0810    3.2980   -0.9600 o         1 MOL     -0.651185
     49 H21        -1.3320    1.9660    2.5350 hn        1 MOL      0.217742
     50 H22        -2.1450    1.5960    0.4940 h1        1 MOL      0.095461
     51 H23        -0.4110    0.9550   -1.2790 hc        1 MOL      0.063755
     52 H24         0.7950    0.8560   -0.0170 hc        1 MOL      0.063755
     53 N5         -2.7730   -1.0970    1.0440 n         1 MOL      0.015438
     54 C17        -3.6670   -0.4320    2.0250 c3        1 MOL     -0.013970
     55 C18        -4.5590   -1.4870    2.7140 c         1 MOL      0.523618
     56 O9         -4.2870   -2.6860    2.6580 o         1 MOL     -0.561433
     57 H25        -3.0260   -2.0460    0.8070 hn        1 MOL      0.154576
     58 H26        -4.3190    0.3150    1.5570 h1        1 MOL      0.015890
     59 H27        -3.0550    0.0170    2.8150 h1        1 MOL      0.015890
     60 N6         -5.6140   -1.0650    3.4300 n         1 MOL     -0.427656
     61 C19        -5.9370    0.3730    3.6980 c3        1 MOL      0.077718
     62 C20        -7.0130    0.9410    2.7530 c         1 MOL      0.340565
     63 O10        -8.0790    0.3700    2.5880 o         1 MOL     -0.384553
     64 C21        -6.4180    0.5150    5.1360 c3        1 MOL     -0.184521
     65 C22        -7.6340   -0.3440    5.5100 c         1 MOL      0.659172
     66 O11        -8.8070    0.2090    5.5070 o         1 MOL     -0.629987
     67 O12        -7.5640   -1.5650    5.7530 o         1 MOL     -0.629987
     68 H28        -6.1480   -1.7820    3.9060 hn        1 MOL      0.301023
     69 H29        -5.0070    0.9190    3.5760 h1        1 MOL      0.024639
     70 H30        -6.7790    1.5370    5.2160 hc        1 MOL      0.037236
     71 H31        -5.6100    0.3260    5.8490 hc        1 MOL      0.037236
     72 N7         -6.7300    2.0450    2.0890 n         1 MOL     -0.117872
     73 C23        -7.6510    2.6550    1.0690 c3        1 MOL     -0.411392
     74 C24        -7.6460    1.9320   -0.3080 c         1 MOL      0.480375
     75 O13        -8.7450    1.6980   -0.8320 o         1 MOL     -0.499140
     76 H32        -5.9880    2.6660    2.3810 hn        1 MOL      0.202240
     77 H33        -7.2910    3.6760    0.9700 h1        1 MOL      0.173773
     78 H34        -8.6700    2.6960    1.4450 h1        1 MOL      0.173773
     79 N8         -6.4890    1.5230   -0.7780 n         1 MOL     -0.201418
     80 C25        -6.2520    0.7360   -1.9930 c3        1 MOL     -0.235819
     81 C26        -4.9840   -0.1700   -1.7890 c         1 MOL      0.546375
     82 O14        -3.9750    0.2420   -1.3460 o         1 MOL     -0.366642
     83 C27        -6.0410    1.6470   -3.2000 c3        1 MOL      0.357296
     84 C28        -5.2910    2.9710   -3.1150 c3        1 MOL     -0.087400
     85 O15        -7.3090    2.0430   -3.5430 oh        1 MOL     -0.644106
     86 H35        -5.6520    1.7400   -0.2550 hn        1 MOL      0.173405
     87 H36        -7.0920    0.0820   -2.2250 h1        1 MOL      0.163391
     88 H37        -5.5380    1.1010   -3.9940 h1        1 MOL      0.057390
     89 H38        -7.6830    2.5910   -2.8400 ho        1 MOL      0.402446
     90 H39        -5.8550    3.7030   -2.5350 hc        1 MOL      0.009020
     91 H40        -4.3680    2.7590   -2.5690 hc        1 MOL      0.009020
     92 H41        -5.1850    3.5080   -4.0580 hc        1 MOL      0.009020
     93 N9         -4.9870   -1.4990   -2.0510 n         1 MOL     -0.522199
     94 C29        -3.9210   -2.5020   -2.0020 c3        1 MOL     -0.108804
     95 C30        -2.6910   -2.2840   -3.0110 c         1 MOL      0.223285
     96 O16        -2.0420   -3.2370   -3.4570 o         1 MOL     -0.475269
     97 C31        -4.5000   -3.9670   -2.1410 c3        1 MOL      0.292079
     98 C32        -4.7730   -4.5660   -3.5310 c3        1 MOL      0.154408
     99 C33        -5.7010   -4.1760   -1.2060 c3        1 MOL     -0.180908
    100 C34        -5.1620   -6.0300   -3.5380 c3        1 MOL     -0.303608
    101 H42        -5.8020   -1.9040   -2.4830 hn        1 MOL      0.285658
    102 H43        -3.4960   -2.4830   -0.9920 h1        1 MOL      0.134140
    103 H44        -3.7610   -4.6600   -1.7610 hc        1 MOL     -0.032825
    104 H45        -3.8530   -4.5340   -4.1240 hc        1 MOL     -0.019898
    105 H46        -5.4940   -3.9900   -4.1230 hc        1 MOL     -0.019898
    106 H47        -5.4050   -3.7190   -0.2630 hc        1 MOL      0.035324
    107 H48        -6.5180   -3.7340   -1.7760 hc        1 MOL      0.035324
    108 H49        -5.9540   -5.2150   -0.9860 hc        1 MOL      0.035324
    109 H50        -4.7120   -6.5830   -2.7130 hc        1 MOL      0.070198
    110 H51        -6.2300   -6.1520   -3.7250 hc        1 MOL      0.070198
    111 H52        -4.6970   -6.5320   -4.3820 hc        1 MOL      0.070198
    112 N10        -2.3300   -1.0270   -3.4240 n         1 MOL     -0.047531
    113 C35        -1.1500   -0.7200   -4.3190 c3        1 MOL     -0.225734
    114 C36         0.2100   -0.6240   -3.6210 c         1 MOL      0.569673
    115 O17         0.9550    0.3540   -3.6690 o         1 MOL     -0.499647
    116 C37        -1.4000    0.5620   -5.1260 c3        1 MOL      0.440558
    117 C38        -1.8540    1.7920   -4.3950 c3        1 MOL     -0.418003
    118 O18        -2.4650    0.3310   -6.0390 oh        1 MOL     -0.645532
    119 H53        -2.8870   -0.2420   -3.1190 hn        1 MOL      0.130449
    120 H54        -1.1360   -1.4650   -5.1060 h1        1 MOL      0.116720
    121 H55        -0.4780    0.7610   -5.6640 h1        1 MOL      0.007791
    122 H56        -2.2400   -0.1900   -6.8170 ho        1 MOL      0.382460
    123 H57        -2.8510    1.6950   -3.9580 hc        1 MOL      0.111563
    124 H58        -1.1840    1.9570   -3.5550 hc        1 MOL      0.111563
    125 H59        -1.6820    2.6230   -5.0750 hc        1 MOL      0.111563
    126 N11         0.6180   -1.7320   -3.0730 n         1 MOL     -0.527083
    127 C39         1.6840   -1.7000   -2.1020 c3        1 MOL     -0.022303
    128 C40         3.0830   -1.3750   -2.6350 c         1 MOL      0.721455
    129 O19         3.3250   -1.6450   -3.7970 o         1 MOL     -0.565916
    130 C41         1.7580   -3.0810   -1.3910 c3        1 MOL      0.460186
    131 C42         2.0510   -4.3440   -2.2180 c3        1 MOL     -0.333567
    132 O20         0.5430   -3.3890   -0.6610 oh        1 MOL     -0.623554
    133 H60        -0.0320   -2.5110   -3.0780 hn        1 MOL      0.328463
    134 H61         1.4800   -0.8780   -1.4210 h1        1 MOL     -0.056088
    135 H62         2.5340   -3.0020   -0.6360 h1        1 MOL     -0.035030
    136 H63         0.0100   -2.5930   -0.6480 ho        1 MOL      0.279300
    137 H64         1.3610   -4.3690   -3.0620 hc        1 MOL      0.077278
    138 H65         3.0810   -4.3330   -2.5860 hc        1 MOL      0.077278
    139 H66         1.9210   -5.1610   -1.5160 hc        1 MOL      0.077278
    140 N12         3.9870   -0.9250   -1.7260 n         1 MOL     -0.543990
    141 C43         5.3640   -0.5490   -2.0650 c3        1 MOL      0.031733
    142 C44         5.7950    0.8880   -1.5760 c         1 MOL      0.550203
    143 O21         6.7940    1.3420   -2.0610 o         1 MOL     -0.552017
    144 C45         6.3590   -1.6190   -1.6620 c3        1 MOL     -0.003915
    145 C46         6.0810   -2.9930   -2.2150 c3        1 MOL     -0.029048
    146 C47         7.2630   -3.8190   -1.6570 c3        1 MOL     -0.021310
    147 C48         7.2000   -5.2640   -2.0010 c3        1 MOL      0.147090
    148 N13         8.3670   -6.0590   -1.5620 n4        1 MOL     -0.330519
    149 H67         3.7830   -1.0610   -0.7460 hn        1 MOL      0.321745
    150 H68         5.4100   -0.4810   -3.1530 h1        1 MOL      0.076060
    151 H69         6.4940   -1.6400   -0.5780 hc        1 MOL      0.019658
    152 H70         7.2830   -1.2680   -2.1120 hc        1 MOL      0.019658
    153 H71         6.0040   -2.9720   -3.3020 hc        1 MOL      0.023439
    154 H72         5.1680   -3.4150   -1.7960 hc        1 MOL      0.023439
    155 H73         7.2860   -3.7840   -0.5610 hc        1 MOL      0.030756
    156 H74         8.2120   -3.3680   -1.9540 hc        1 MOL      0.030756
    157 H75         7.0870   -5.3980   -3.0810 hx        1 MOL      0.031324
    158 H76         6.2930   -5.6420   -1.5440 hx        1 MOL      0.031324
    159 H77         8.6760   -5.7940   -0.6330 hn        1 MOL      0.274370
    160 H78         8.1950   -7.0290   -1.3630 hn        1 MOL      0.274370
    161 H79         9.1670   -5.9510   -2.1800 hn        1 MOL      0.274370
    162 N14         4.9500    1.4660   -0.6760 n         1 MOL     -0.277567
    163 C49         5.4070    2.7680   -0.0440 c3        1 MOL     -0.487799
    164 C50         6.8020    2.6740    0.5380 c         1 MOL      0.611892
    165 O22         7.1620    1.7050    1.2260 o         1 MOL     -0.536831
    166 C51         4.3880    3.0520    0.9980 c3        1 MOL      0.469093
    167 C52         4.1930    4.5070    1.4910 c3        1 MOL     -0.428240
    168 C53         3.9500    5.6350    0.4550 c         1 MOL      1.017014
    169 O23         2.7890    6.0450    0.3480 o         1 MOL     -0.869595
    170 O24         4.9140    5.9790   -0.2690 o         1 MOL     -0.869595
    171 H80         4.0530    1.1160   -0.3690 hn        1 MOL      0.186529
    172 H81         5.3640    3.5810   -0.7690 h1        1 MOL      0.193776
    173 H82         4.5100    2.4250    1.8860 hc        1 MOL     -0.008089
    174 H83         3.4080    2.8950    0.5620 hc        1 MOL     -0.008089
    175 H84         5.0910    4.8620    2.0090 hc        1 MOL      0.053837
    176 H85         3.3990    4.5530    2.2210 hc        1 MOL      0.053837
    177 N15         7.5850    3.6900    0.3870 n         1 MOL     -0.417273
    178 C54         8.9570    3.8210    0.9460 c3        1 MOL     -0.027423
    179 H86         8.9880    4.6630    1.6380 h1        1 MOL      0.057161
    180 H87         9.2230    2.9060    1.4750 h1        1 MOL      0.057161
    181 H88         9.6650    3.9930    0.1360 h1        1 MOL      0.057161
    182 H89         7.2260    4.4630   -0.1530 hn        1 MOL      0.359330
    183 Ca1         0.4350    5.8240   -0.8140 Ca        1 MOL      1.750061
    184 O25         2.4080    5.7730   -2.6360 oh        1 MOL     -0.913170
    185 H90         3.2470    5.9250   -2.2050 ho        1 MOL      0.451068
    186 H91         2.5570    5.9950   -3.5510 ho        1 MOL      0.451068
    187 O26        -0.5680    4.9240   -2.9810 oh        1 MOL     -0.913170
    188 H92        -0.2380    4.6940   -3.8480 ho        1 MOL      0.451068
    189 H93        -1.4060    5.3500   -3.1560 ho        1 MOL      0.451068
    190 O27        -2.0190    6.6780   -0.5410 oh        1 MOL     -0.913170
    191 H94        -2.4300    6.6380    0.3150 ho        1 MOL      0.451068
    192 H95        -2.6880    7.0620   -1.1160 ho        1 MOL      0.451068
@<TRIPOS>BOND
     1    1    2 1   
     2    1    4 1   
     3    1    5 1   
     4    1    6 1   
     5    2    3 2   
     6    2    7 1   
     7    7    8 1   
     8    7   15 1   
     9    8    9 1   
    10    8   11 1   
    11    8   16 1   
    12    9   10 2   
    13    9   19 1   
    14   11   12 1   
    15   11   17 1   
    16   11   18 1   
    17   12   13 1   
    18   12   14 1   
    19   19   20 1   
    20   19   28 1   
    21   20   21 1   
    22   20   23 1   
    23   20   29 1   
    24   21   22 2   
    25   21   41 1   
    26   23   24 1   
    27   23   30 1   
    28   23   31 1   
    29   24   25 1   
    30   24   32 1   
    31   24   33 1   
    32   25   26 1   
    33   25   34 1   
    34   25   35 1   
    35   26   27 1   
    36   26   36 1   
    37   26   37 1   
    38   27   38 1   
    39   27   39 1   
    40   27   40 1   
    41   41   42 1   
    42   41   49 1   
    43   42   43 1   
    44   42   45 1   
    45   42   50 1   
    46   43   44 2   
    47   43   53 1   
    48   45   46 1   
    49   45   51 1   
    50   45   52 1   
    51   46   47 1   
    52   46   48 1   
    53   53   54 1   
    54   53   57 1   
    55   54   55 1   
    56   54   58 1   
    57   54   59 1   
    58   55   56 2   
    59   55   60 1   
    60   60   61 1   
    61   60   68 1   
    62   61   62 1   
    63   61   64 1   
    64   61   69 1   
    65   62   63 2   
    66   62   72 1   
    67   64   65 1   
    68   64   70 1   
    69   64   71 1   
    70   65   66 1   
    71   65   67 1   
    72   72   73 1   
    73   72   76 1   
    74   73   74 1   
    75   73   77 1   
    76   73   78 1   
    77   74   75 2   
    78   74   79 1   
    79   79   80 1   
    80   79   86 1   
    81   80   81 1   
    82   80   83 1   
    83   80   87 1   
    84   81   82 2   
    85   81   93 1   
    86   83   84 1   
    87   83   85 1   
    88   83   88 1   
    89   84   90 1   
    90   84   91 1   
    91   84   92 1   
    92   85   89 1   
    93   93   94 1   
    94   93  101 1   
    95   94   95 1   
    96   94   97 1   
    97   94  102 1   
    98   95   96 2   
    99   95  112 1   
   100   97   98 1   
   101   97   99 1   
   102   97  103 1   
   103   98  100 1   
   104   98  104 1   
   105   98  105 1   
   106   99  106 1   
   107   99  107 1   
   108   99  108 1   
   109  100  109 1   
   110  100  110 1   
   111  100  111 1   
   112  112  113 1   
   113  112  119 1   
   114  113  114 1   
   115  113  116 1   
   116  113  120 1   
   117  114  115 2   
   118  114  126 1   
   119  116  117 1   
   120  116  118 1   
   121  116  121 1   
   122  117  123 1   
   123  117  124 1   
   124  117  125 1   
   125  118  122 1   
   126  126  127 1   
   127  126  133 1   
   128  127  128 1   
   129  127  130 1   
   130  127  134 1   
   131  128  129 2   
   132  128  140 1   
   133  130  131 1   
   134  130  132 1   
   135  130  135 1   
   136  131  137 1   
   137  131  138 1   
   138  131  139 1   
   139  132  136 1   
   140  140  141 1   
   141  140  149 1   
   142  141  142 1   
   143  141  144 1   
   144  141  150 1   
   145  142  143 2   
   146  142  162 1   
   147  144  145 1   
   148  144  151 1   
   149  144  152 1   
   150  145  146 1   
   151  145  153 1   
   152  145  154 1   
   153  146  147 1   
   154  146  155 1   
   155  146  156 1   
   156  147  148 1   
   157  147  157 1   
   158  147  158 1   
   159  148  159 1   
   160  148  160 1   
   161  148  161 1   
   162  162  163 1   
   163  162  171 1   
   164  163  164 1   
   165  163  166 1   
   166  163  172 1   
   167  164  165 2   
   168  164  177 1   
   169  166  167 1   
   170  166  173 1   
   171  166  174 1   
   172  167  168 1   
   173  167  175 1   
   174  167  176 1   
   175  168  169 1   
   176  168  170 1   
   177  177  178 1   
   178  177  182 1   
   179  178  179 1   
   180  178  180 1   
   181  178  181 1   
   182  184  185 1   
   183  184  186 1   
   184  187  188 1   
   185  187  189 1   
   186  190  191 1   
   187  190  192 1   
@<TRIPOS>SUBSTRUCTURE
     1 MOL         1 TEMP              0 ****  ****    0 ROOT
