@<TRIPOS>MOLECULE
MOL
  192   187     1     0     0
SMALL
resp


@<TRIPOS>ATOM
      1 C1          2.6250   -4.3980    2.7310 c3        1 MOL     -0.120681
      2 C2          3.6160   -4.0250    1.6540 c         1 MOL      0.564729
      3 O1          4.4440   -3.1570    1.8300 o         1 MOL     -0.583482
      4 H1          3.1340   -4.9650    3.5110 hc        1 MOL      0.008238
      5 H2          2.1970   -3.4930    3.1600 hc        1 MOL      0.008238
      6 H3          1.8310   -5.0080    2.2990 hc        1 MOL      0.008238
      7 N1          3.6140   -4.6950    0.5470 n         1 MOL     -0.400195
      8 C3          4.5540   -4.6130   -0.6030 c3        1 MOL     -0.038844
      9 C4          6.0390   -4.9070   -0.3130 c         1 MOL      0.563838
     10 O2          6.6230   -5.7990   -0.8250 o         1 MOL     -0.556631
     11 C5          4.2200   -3.4340   -1.4810 c3        1 MOL     -0.353162
     12 C6          2.7230   -3.2140   -1.6500 c         1 MOL      0.633333
     13 O3          2.1190   -3.9570   -2.4320 o         1 MOL     -0.628240
     14 O4          2.1700   -2.2130   -1.0420 o         1 MOL     -0.628240
     15 H4          2.9030   -5.4030    0.3980 hn        1 MOL      0.286711
     16 H5          4.2300   -5.4820   -1.1670 h1        1 MOL      0.035680
     17 H6          4.7300   -3.4340   -2.4460 hc        1 MOL      0.148092
     18 H7          4.6930   -2.5520   -1.0440 hc        1 MOL      0.148092
     19 N2          6.7120   -4.1100    0.4370 n         1 MOL     -0.276800
     20 C7          8.1170   -4.2580    0.8300 c3        1 MOL      0.026590
     21 C8          8.9960   -4.2120   -0.4520 c         1 MOL      0.696825
     22 O5          9.5630   -5.2610   -0.8040 o         1 MOL     -0.586095
     23 C9          8.4230   -5.4700    1.7660 c3        1 MOL      0.160116
     24 C10         7.3020   -5.6530    2.7880 c3        1 MOL      0.068094
     25 C11         9.7780   -5.4690    2.4510 c3        1 MOL     -0.358233
     26 C12         7.4760   -6.5580    3.9830 c3        1 MOL     -0.294007
     27 H8          6.2810   -3.3070    0.8680 hn        1 MOL      0.209659
     28 H9          8.3910   -3.3810    1.4070 h1        1 MOL      0.053588
     29 H10         8.4120   -6.2630    1.0160 hc        1 MOL     -0.006118
     30 H11         6.4160   -5.9540    2.2230 hc        1 MOL      0.006592
     31 H12         7.1050   -4.6830    3.2470 hc        1 MOL      0.006592
     32 H13        10.4650   -5.4190    1.6120 hc        1 MOL      0.074310
     33 H14         9.8010   -4.5970    3.1040 hc        1 MOL      0.074310
     34 H15         9.9490   -6.4070    2.9720 hc        1 MOL      0.074310
     35 H16         6.5800   -6.6470    4.5930 hc        1 MOL      0.061885
     36 H17         7.7630   -7.5940    3.7840 hc        1 MOL      0.061885
     37 H18         8.2710   -6.0540    4.5430 hc        1 MOL      0.061885
     38 N3          9.1930   -3.1020   -1.1990 n         1 MOL     -0.754179
     39 C13         8.7660   -1.6930   -0.9720 c3        1 MOL      0.401571
     40 C14         7.5740   -1.3590   -1.8370 c         1 MOL      0.436547
     41 O6          7.4880   -1.7740   -2.9650 o         1 MOL     -0.529848
     42 C15         9.9700   -0.8000   -1.3300 c3        1 MOL     -0.333636
     43 C16         9.8250    0.5900   -0.6530 c         1 MOL      0.639098
     44 O7         10.0550    1.6640   -1.2820 o         1 MOL     -0.652797
     45 O8          9.3590    0.7530    0.5010 o         1 MOL     -0.652797
     46 H19         9.5880   -3.2930   -2.0980 hn        1 MOL      0.356574
     47 H20         8.6250   -1.4190    0.0750 h1        1 MOL     -0.086290
     48 H21        10.1750   -0.7870   -2.3960 hc        1 MOL      0.082920
     49 H22        10.9450   -1.0820   -0.9420 hc        1 MOL      0.082920
     50 N4          6.6950   -0.4820   -1.3110 n         1 MOL     -0.400798
     51 C17         5.4960    0.0130   -2.0220 c3        1 MOL      0.228034
     52 C18         5.5120    1.5800   -2.3180 c         1 MOL      0.390698
     53 O9          6.5070    2.2580   -2.3990 o         1 MOL     -0.480844
     54 H23         6.9690   -0.2100   -0.3760 hn        1 MOL      0.267713
     55 H24         4.6480   -0.2280   -1.3860 h1        1 MOL     -0.000618
     56 H25         5.3560   -0.5980   -2.9220 h1        1 MOL     -0.000618
     57 N5          4.3530    2.1010   -2.5890 n         1 MOL     -0.355355
     58 C19         4.1020    3.4930   -2.9570 c3        1 MOL      0.037219
     59 C20         4.3840    4.5040   -1.8570 c         1 MOL      0.345465
     60 O10         4.3060    5.7750   -2.0940 o         1 MOL     -0.517789
     61 C21         2.6550    3.7840   -3.4570 c3        1 MOL     -0.266789
     62 C22         1.5750    3.0840   -2.5860 c         1 MOL      0.765944
     63 O11         1.4260    3.4850   -1.4150 o         1 MOL     -0.698529
     64 O12         0.9150    2.1800   -3.0930 o         1 MOL     -0.698529
     65 H26         3.5690    1.4720   -2.6760 hn        1 MOL      0.240655
     66 H27         4.7230    3.7550   -3.8240 h1        1 MOL      0.103546
     67 H28         2.5200    3.4290   -4.4820 hc        1 MOL      0.058412
     68 H29         2.4280    4.8350   -3.3100 hc        1 MOL      0.058412
     69 N6          4.7720    4.0240   -0.6160 n         1 MOL     -0.143254
     70 C23         4.8860    4.8890    0.5820 c3        1 MOL     -0.474486
     71 C24         3.6360    5.7080    1.0330 c         1 MOL      0.497843
     72 O13         3.6510    6.4050    2.0250 o         1 MOL     -0.582166
     73 H30         4.8140    3.0540   -0.3540 hn        1 MOL      0.256881
     74 H31         5.6860    5.6040    0.3770 h1        1 MOL      0.199796
     75 H32         5.0570    4.1800    1.4010 h1        1 MOL      0.199796
     76 N7          2.4950    5.6160    0.3280 n         1 MOL      0.019467
     77 C25         1.2530    6.3690    0.4670 c3        1 MOL      0.056941
     78 C26         0.4860    6.1580    1.7530 c         1 MOL      0.267273
     79 O14        -0.2410    7.0680    2.2640 o         1 MOL     -0.496290
     80 C27         1.4270    7.8570    0.1210 c3        1 MOL      0.233978
     81 C28         1.8260    8.2330   -1.3240 c3        1 MOL     -0.278143
     82 C29         1.4560    9.6470   -1.7400 c         1 MOL      0.676314
     83 N8          2.3200   10.4500   -2.3550 n         1 MOL     -0.821496
     84 O15         0.3360   10.0700   -1.6200 o         1 MOL     -0.574301
     85 H33         2.3410    4.9280   -0.4040 hn        1 MOL     -0.011580
     86 H34         0.6110    6.1530   -0.3870 h1        1 MOL      0.099109
     87 H35         2.0880    8.4120    0.7770 hc        1 MOL     -0.037242
     88 H36         0.4520    8.3090    0.2900 hc        1 MOL     -0.037242
     89 H37         1.1940    7.6950   -2.0270 hc        1 MOL      0.087544
     90 H38         2.9020    8.1370   -1.5030 hc        1 MOL      0.087544
     91 H39         3.2790   10.1930   -2.5610 hn        1 MOL      0.351059
     92 H40         2.0130   11.3680   -2.6390 hn        1 MOL      0.351059
     93 N9          0.5830    4.9910    2.4560 n         1 MOL     -0.177098
     94 C30         0.0230    4.5990    3.7370 c3        1 MOL     -0.061244
     95 C31        -0.9410    3.4400    3.6470 c         1 MOL      0.502784
     96 O16        -1.5780    3.1050    4.6520 o         1 MOL     -0.582223
     97 C32         1.2130    4.2770    4.7370 c3        1 MOL      0.293334
     98 C33         2.3690    3.5470    4.1250 c3        1 MOL     -0.367943
     99 C34         1.6800    5.5650    5.4430 c3        1 MOL     -0.367943
    100 H41         1.1220    4.2550    2.0430 hn        1 MOL      0.210396
    101 H42        -0.5420    5.4690    4.0810 h1        1 MOL      0.112900
    102 H43         0.7980    3.5980    5.4790 hc        1 MOL     -0.040755
    103 H44         3.0770    3.2110    4.8800 hc        1 MOL      0.089218
    104 H45         1.9570    2.6550    3.6540 hc        1 MOL      0.089218
    105 H46         2.8710    4.0750    3.3240 hc        1 MOL      0.089218
    106 H47         0.7600    5.9160    5.8940 hc        1 MOL      0.089218
    107 H48         2.4350    5.3050    6.1800 hc        1 MOL      0.089218
    108 H49         2.1130    6.2310    4.6990 hc        1 MOL      0.089218
    109 N10        -1.1810    2.8180    2.4660 n         1 MOL     -0.453100
    110 C35        -2.2660    1.7420    2.3100 c3        1 MOL      0.367520
    111 C36        -2.9280    1.7350    0.9110 c         1 MOL      0.364995
    112 O17        -2.3950    2.2090   -0.0850 o         1 MOL     -0.459737
    113 C37        -1.5640    0.4180    2.7450 c3        1 MOL     -0.155887
    114 C38        -2.5780   -0.7170    2.6560 c         1 MOL      0.575513
    115 N11        -3.5750   -0.5910    3.5010 n         1 MOL     -0.651534
    116 O18        -2.4780   -1.6920    1.9390 o         1 MOL     -0.676443
    117 H50        -0.6130    3.1640    1.7000 hn        1 MOL      0.207393
    118 H51        -3.0140    2.0420    3.0390 h1        1 MOL      0.019644
    119 H52        -1.3140    0.5760    3.7980 hc        1 MOL      0.077888
    120 H53        -0.7030    0.1760    2.1230 hc        1 MOL      0.077888
    121 H54        -3.5770    0.0070    4.3230 hn        1 MOL      0.332861
    122 H55        -4.2240   -1.3610    3.5010 hn        1 MOL      0.332861
    123 N12        -4.0460    1.0580    0.8470 n         1 MOL     -0.435270
    124 C39        -4.8240    0.6900   -0.3280 c3        1 MOL      0.409345
    125 C40        -6.2330    0.2040    0.0910 c         1 MOL      0.335831
    126 O19        -6.5040   -0.1520    1.2340 o         1 MOL     -0.525772
    127 C41        -4.1470   -0.3420   -1.1410 c3        1 MOL     -0.309023
    128 C42        -4.7860   -0.8240   -2.4110 ca        1 MOL      0.035757
    129 C43        -4.9110    0.0220   -3.5370 ca        1 MOL     -0.100310
    130 C44        -5.3550   -2.0860   -2.3940 ca        1 MOL     -0.100310
    131 C45        -5.5940   -0.4320   -4.6980 ca        1 MOL     -0.301848
    132 C46        -5.8430   -2.6450   -3.6090 ca        1 MOL     -0.301848
    133 C47        -5.9720   -1.7830   -4.7300 ca        1 MOL      0.359216
    134 O20        -6.4890   -2.3000   -5.8860 oh        1 MOL     -0.512498
    135 H56        -4.2140    0.5770    1.7260 hn        1 MOL      0.157715
    136 H57        -5.0470    1.5300   -0.9970 h1        1 MOL     -0.009731
    137 H58        -3.8340   -1.1920   -0.5410 hc        1 MOL      0.153440
    138 H59        -3.2220    0.1760   -1.3670 hc        1 MOL      0.153440
    139 H60        -4.4260    0.9770   -3.3920 ha        1 MOL      0.135134
    140 H61        -5.3160   -2.7310   -1.5320 ha        1 MOL      0.135134
    141 H62        -5.8020    0.2230   -5.5370 ha        1 MOL      0.170779
    142 H63        -6.2240   -3.6580   -3.5670 ha        1 MOL      0.170779
    143 H64        -6.5000   -3.2630   -5.8650 ho        1 MOL      0.356189
    144 N13        -7.1380    0.3090   -0.8680 n         1 MOL     -0.361768
    145 C48        -8.5310   -0.1500   -0.7520 c3        1 MOL      0.169307
    146 C49        -8.9170   -1.3310   -1.7230 c         1 MOL      0.552889
    147 O21        -9.5330   -1.0960   -2.7080 o         1 MOL     -0.554102
    148 C50        -9.5310    1.0260   -0.7270 c3        1 MOL     -0.074249
    149 C51        -9.3840    1.9140    0.5020 c3        1 MOL     -0.134539
    150 C52       -10.4350    3.0200    0.4860 c         1 MOL      0.738089
    151 O22       -11.1070    3.2350    1.4840 o         1 MOL     -0.721325
    152 O23       -10.5680    3.6880   -0.5440 o         1 MOL     -0.721325
    153 H65        -6.8650    0.4330   -1.8360 hn        1 MOL      0.264781
    154 H66        -8.7430   -0.6080    0.2120 h1        1 MOL      0.126746
    155 H67       -10.5270    0.5810   -0.6500 hc        1 MOL      0.019862
    156 H68        -9.3520    1.6170   -1.6260 hc        1 MOL      0.019862
    157 H69        -8.4100    2.3730    0.6150 hc        1 MOL      0.012018
    158 H70        -9.5920    1.2620    1.3530 hc        1 MOL      0.012018
    159 N14        -8.6650   -2.6210   -1.4190 n         1 MOL     -0.477070
    160 C53        -7.9770   -3.1690   -0.2750 c3        1 MOL      0.069587
    161 C54        -8.7980   -3.0360    1.0450 c         1 MOL      0.355214
    162 O24       -10.0170   -2.9870    1.0150 o         1 MOL     -0.525895
    163 C55        -7.6650   -4.6240   -0.5750 c3        1 MOL      0.054677
    164 C56        -6.5320   -5.1290    0.2460 c3        1 MOL      0.179286
    165 C57        -5.2050   -4.4380    0.1130 c         1 MOL      0.034254
    166 O25        -4.3620   -4.6800   -0.7970 o         1 MOL     -0.487928
    167 O26        -4.9190   -3.4860    0.9120 o         1 MOL     -0.487928
    168 H71        -8.8610   -3.2470   -2.1830 hn        1 MOL      0.265218
    169 H72        -7.0770   -2.5700   -0.1170 h1        1 MOL     -0.058862
    170 H73        -7.3220   -4.7950   -1.5960 hc        1 MOL      0.020527
    171 H74        -8.5460   -5.2610   -0.4460 hc        1 MOL      0.020527
    172 H75        -6.3760   -6.1640   -0.0640 hc        1 MOL     -0.054861
    173 H76        -6.8610   -5.0910    1.2860 hc        1 MOL     -0.054861
    174 N15        -8.1650   -2.6890    2.1640 n         1 MOL     -0.063983
    175 C58        -8.7230   -2.4050    3.4890 c3        1 MOL     -0.227995
    176 H77        -8.2990   -3.0970    4.2170 h1        1 MOL      0.092345
    177 H78        -8.4780   -1.3820    3.7750 h1        1 MOL      0.092345
    178 H79        -9.8050   -2.5260    3.4620 h1        1 MOL      0.092345
    179 H80        -7.1630   -2.7140    2.0530 hn        1 MOL      0.150979
    180 Ca1        -2.3200   -4.0140    0.7860 Ca        1 MOL      1.699459
    181 O27        -2.6970   -3.9060    3.4230 oh        1 MOL     -0.882928
    182 H81        -2.1690   -3.9390    4.2140 ho        1 MOL      0.412090
    183 H82        -3.5360   -3.5160    3.7030 ho        1 MOL      0.412090
    184 O28        -2.2450   -2.9160   -1.8410 oh        1 MOL     -0.882928
    185 H83        -2.7810   -3.0390   -2.6240 ho        1 MOL      0.412090
    186 H84        -1.4660   -2.4540   -2.1530 ho        1 MOL      0.412090
    187 O29        -1.3430   -5.6350   -1.0730 oh        1 MOL     -0.882928
    188 H85        -0.4350   -5.6210   -1.3640 ho        1 MOL      0.412090
    189 H86        -1.5730   -6.5690   -1.0510 ho        1 MOL      0.412090
    190 O30        -0.1360   -2.3490   -0.0140 oh        1 MOL     -0.882928
    191 H87         0.7090   -2.5300   -0.4140 ho        1 MOL      0.412090
    192 H88        -0.3920   -1.5020   -0.3650 ho        1 MOL      0.412090
@<TRIPOS>BOND
     1    1    2 1   
     2    1    4 1   
     3    1    5 1   
     4    1    6 1   
     5    2    3 2   
     6    2    7 1   
     7    7    8 1   
     8    7   15 1   
     9    8    9 1   
    10    8   11 1   
    11    8   16 1   
    12    9   10 2   
    13    9   19 1   
    14   11   12 1   
    15   11   17 1   
    16   11   18 1   
    17   12   13 1   
    18   12   14 1   
    19   19   20 1   
    20   19   27 1   
    21   20   21 1   
    22   20   23 1   
    23   20   28 1   
    24   21   22 2   
    25   21   38 1   
    26   23   24 1   
    27   23   25 1   
    28   23   29 1   
    29   24   26 1   
    30   24   30 1   
    31   24   31 1   
    32   25   32 1   
    33   25   33 1   
    34   25   34 1   
    35   26   35 1   
    36   26   36 1   
    37   26   37 1   
    38   38   39 1   
    39   38   46 1   
    40   39   40 1   
    41   39   42 1   
    42   39   47 1   
    43   40   41 2   
    44   40   50 1   
    45   42   43 1   
    46   42   48 1   
    47   42   49 1   
    48   43   44 1   
    49   43   45 1   
    50   50   51 1   
    51   50   54 1   
    52   51   52 1   
    53   51   55 1   
    54   51   56 1   
    55   52   53 2   
    56   52   57 1   
    57   57   58 1   
    58   57   65 1   
    59   58   59 1   
    60   58   61 1   
    61   58   66 1   
    62   59   60 2   
    63   59   69 1   
    64   61   62 1   
    65   61   67 1   
    66   61   68 1   
    67   62   63 1   
    68   62   64 1   
    69   69   70 1   
    70   69   73 1   
    71   70   71 1   
    72   70   74 1   
    73   70   75 1   
    74   71   72 2   
    75   71   76 1   
    76   76   77 1   
    77   76   85 1   
    78   77   78 1   
    79   77   80 1   
    80   77   86 1   
    81   78   79 2   
    82   78   93 1   
    83   80   81 1   
    84   80   87 1   
    85   80   88 1   
    86   81   82 1   
    87   81   89 1   
    88   81   90 1   
    89   82   83 1   
    90   82   84 2   
    91   83   91 1   
    92   83   92 1   
    93   93   94 1   
    94   93  100 1   
    95   94   95 1   
    96   94   97 1   
    97   94  101 1   
    98   95   96 2   
    99   95  109 1   
   100   97   98 1   
   101   97   99 1   
   102   97  102 1   
   103   98  103 1   
   104   98  104 1   
   105   98  105 1   
   106   99  106 1   
   107   99  107 1   
   108   99  108 1   
   109  109  110 1   
   110  109  117 1   
   111  110  111 1   
   112  110  113 1   
   113  110  118 1   
   114  111  112 2   
   115  111  123 1   
   116  113  114 1   
   117  113  119 1   
   118  113  120 1   
   119  114  115 1   
   120  114  116 2   
   121  115  121 1   
   122  115  122 1   
   123  123  124 1   
   124  123  135 1   
   125  124  125 1   
   126  124  127 1   
   127  124  136 1   
   128  125  126 2   
   129  125  144 1   
   130  127  128 1   
   131  127  137 1   
   132  127  138 1   
   133  128  129 ar  
   134  128  130 ar  
   135  129  131 ar  
   136  129  139 1   
   137  130  132 ar  
   138  130  140 1   
   139  131  133 ar  
   140  131  141 1   
   141  132  133 ar  
   142  132  142 1   
   143  133  134 1   
   144  134  143 1   
   145  144  145 1   
   146  144  153 1   
   147  145  146 1   
   148  145  148 1   
   149  145  154 1   
   150  146  147 2   
   151  146  159 1   
   152  148  149 1   
   153  148  155 1   
   154  148  156 1   
   155  149  150 1   
   156  149  157 1   
   157  149  158 1   
   158  150  151 1   
   159  150  152 1   
   160  159  160 1   
   161  159  168 1   
   162  160  161 1   
   163  160  163 1   
   164  160  169 1   
   165  161  162 2   
   166  161  174 1   
   167  163  164 1   
   168  163  170 1   
   169  163  171 1   
   170  164  165 1   
   171  164  172 1   
   172  164  173 1   
   173  165  166 1   
   174  165  167 1   
   175  174  175 1   
   176  174  179 1   
   177  175  176 1   
   178  175  177 1   
   179  175  178 1   
   180  181  182 1   
   181  181  183 1   
   182  184  185 1   
   183  184  186 1   
   184  187  188 1   
   185  187  189 1   
   186  190  191 1   
   187  190  192 1   
@<TRIPOS>SUBSTRUCTURE
     1 MOL         1 TEMP              0 ****  ****    0 ROOT
