@<TRIPOS>MOLECULE
MOL
  181   177     1     0     0
SMALL
resp


@<TRIPOS>ATOM
      1 C1         -6.6460   -5.9180   -4.9360 c3        1 MOL     -0.330457
      2 C2         -6.0790   -4.6180   -4.2600 c         1 MOL      0.690604
      3 O1         -5.1300   -4.0100   -4.7770 o         1 MOL     -0.588294
      4 H1         -6.9030   -6.6450   -4.1650 hc        1 MOL      0.073199
      5 H2         -7.5380   -5.6690   -5.5120 hc        1 MOL      0.073199
      6 H3         -5.8920   -6.3430   -5.5990 hc        1 MOL      0.073199
      7 N1         -6.5150   -4.1860   -3.1130 n         1 MOL     -0.474248
      8 C3         -7.6290   -4.6720   -2.2680 c3        1 MOL     -0.009088
      9 C4         -7.2120   -5.3140   -0.9440 c         1 MOL      0.626777
     10 O2         -6.1070   -5.8640   -0.8380 o         1 MOL     -0.509368
     11 C5         -8.7660   -3.6100   -2.1450 c3        1 MOL     -0.145107
     12 C6         -8.2540   -2.3320   -1.5930 c         1 MOL      0.664696
     13 O3         -8.2160   -2.2090   -0.3780 o         1 MOL     -0.687444
     14 O4         -7.8970   -1.4150   -2.3760 o         1 MOL     -0.687444
     15 H4         -5.8130   -3.6360   -2.6530 hn        1 MOL      0.363745
     16 H5         -7.9710   -5.5800   -2.7910 h1        1 MOL      0.065284
     17 H6         -9.6310   -4.0310   -1.6240 hc        1 MOL      0.015530
     18 H7         -9.0960   -3.4250   -3.1720 hc        1 MOL      0.015530
     19 N2         -8.0970   -5.2960    0.0400 n         1 MOL     -0.703041
     20 C7         -7.8100   -5.5990    1.4060 c3        1 MOL      0.403581
     21 C8         -6.7110   -4.7080    2.0810 c         1 MOL      0.277123
     22 O5         -6.1420   -5.0520    3.1110 o         1 MOL     -0.554882
     23 C9         -7.7660   -7.1190    1.5780 c3        1 MOL     -0.439909
     24 H8         -8.9250   -4.7250   -0.1040 hn        1 MOL      0.383343
     25 H9         -8.7470   -5.2430    1.8420 h1        1 MOL     -0.005683
     26 H10        -8.5280   -7.6120    0.9790 hc        1 MOL      0.116305
     27 H11        -6.8230   -7.4300    1.1170 hc        1 MOL      0.116305
     28 H12        -7.9040   -7.3890    2.6230 hc        1 MOL      0.116305
     29 N3         -6.3720   -3.5660    1.5450 n         1 MOL      0.049942
     30 C10        -5.3790   -2.6010    2.0490 c3        1 MOL      0.277057
     31 C11        -6.0610   -1.2900    2.5780 c         1 MOL      0.111018
     32 O6         -7.0450   -0.9160    2.0190 o         1 MOL     -0.384599
     33 C12        -4.2380   -2.4130    1.0850 c3        1 MOL     -0.234386
     34 C13        -4.7280   -2.0540   -0.3500 c         1 MOL      0.766206
     35 O7         -5.2210   -0.8970   -0.5220 o         1 MOL     -0.682463
     36 O8         -4.6900   -2.8010   -1.3280 o         1 MOL     -0.682463
     37 H13        -6.9010   -3.3000    0.7250 hn        1 MOL     -0.073975
     38 H14        -4.9970   -3.1680    2.8870 h1        1 MOL     -0.002949
     39 H15        -3.7170   -3.3770    1.0640 hc        1 MOL      0.053222
     40 H16        -3.5900   -1.6500    1.5040 hc        1 MOL      0.053222
     41 N4         -5.4850   -0.4990    3.4720 n         1 MOL     -0.193166
     42 C14        -6.0330    0.8180    3.9520 c3        1 MOL     -0.101689
     43 C15        -5.9100    1.9580    2.9020 c         1 MOL      0.376456
     44 O9         -6.0170    1.7310    1.6760 o         1 MOL     -0.508833
     45 H17        -4.6300   -0.8200    3.9020 hn        1 MOL      0.255044
     46 H18        -5.3960    1.0170    4.8200 h1        1 MOL      0.091759
     47 H19        -7.0200    0.7470    4.4160 h1        1 MOL      0.091759
     48 N5         -5.6180    3.1720    3.3730 n         1 MOL     -0.315134
     49 C16        -5.2030    4.2870    2.4670 c3        1 MOL     -0.020338
     50 C17        -3.9160    4.0210    1.5600 c         1 MOL      0.617829
     51 O10        -3.1770    3.0980    1.9130 o         1 MOL     -0.444551
     52 C18        -5.0060    5.5480    3.3140 c3        1 MOL     -0.260381
     53 C19        -3.8600    5.4650    4.2890 c         1 MOL      0.573228
     54 N6         -4.1350    5.0730    5.4840 n         1 MOL     -0.689105
     55 O11        -2.6990    5.7640    4.0700 o         1 MOL     -0.477368
     56 H20        -5.7560    3.2660    4.3740 hn        1 MOL      0.242252
     57 H21        -6.0350    4.5710    1.8130 h1        1 MOL      0.067637
     58 H22        -5.9470    5.7410    3.8340 hc        1 MOL      0.089973
     59 H23        -4.9100    6.4440    2.6950 hc        1 MOL      0.089973
     60 H24        -5.0620    5.0160    5.8730 hn        1 MOL      0.328746
     61 H25        -3.3940    5.2800    6.1470 hn        1 MOL      0.328746
     62 N7         -3.6490    4.8470    0.5110 n         1 MOL     -0.500619
     63 C20        -2.4130    4.8930   -0.2270 c3        1 MOL      0.138770
     64 C21        -2.0050    6.3500   -0.5140 c         1 MOL      0.542235
     65 O12        -2.5360    7.2870    0.0560 o         1 MOL     -0.581015
     66 H26        -4.3620    5.5160    0.2790 hn        1 MOL      0.266836
     67 H27        -2.6010    4.4630   -1.2080 h1        1 MOL      0.050977
     68 H28        -1.6280    4.3310    0.2890 h1        1 MOL      0.050977
     69 N8         -0.9100    6.5140   -1.2100 n         1 MOL     -0.437600
     70 C22        -0.2180    5.5720   -2.1040 c3        1 MOL     -0.023130
     71 C23         0.9720    4.8770   -1.3800 c         1 MOL      0.553091
     72 O13         1.6400    5.5470   -0.5950 o         1 MOL     -0.521486
     73 C24         0.0060    6.1420   -3.4890 c3        1 MOL      0.422469
     74 C25        -1.1490    6.1730   -4.3930 c3        1 MOL     -0.246116
     75 O14         0.5130    7.4500   -3.4430 oh        1 MOL     -0.632475
     76 H29        -0.5710    7.4740   -1.2540 hn        1 MOL      0.332341
     77 H30        -0.9430    4.7770   -2.2710 h1        1 MOL     -0.018000
     78 H31         0.7330    5.5130   -4.0020 h1        1 MOL      0.001930
     79 H32         1.0460    7.4820   -4.2440 ho        1 MOL      0.393209
     80 H33        -1.0890    6.7370   -5.3230 hc        1 MOL      0.049081
     81 H34        -1.3440    5.1640   -4.7410 hc        1 MOL      0.049081
     82 H35        -2.0090    6.5150   -3.8240 hc        1 MOL      0.049081
     83 N9          1.2320    3.6310   -1.7980 n         1 MOL     -0.405566
     84 C26         2.3410    2.7430   -1.2970 c3        1 MOL     -0.026995
     85 C27         3.2140    2.2300   -2.4460 c         1 MOL      0.470559
     86 O15         2.7800    2.1280   -3.5900 o         1 MOL     -0.581845
     87 C28         1.8240    1.6020   -0.4130 c3        1 MOL      0.061943
     88 C29         1.1120    0.4810   -1.2150 c3        1 MOL      0.018306
     89 C30         1.1320    2.1530    0.7460 c3        1 MOL     -0.063186
     90 C31         0.5550   -0.5520   -0.2140 c3        1 MOL     -0.030571
     91 H36         0.5530    3.2300   -2.4260 hn        1 MOL      0.228977
     92 H37         2.9630    3.4200   -0.7100 h1        1 MOL      0.141074
     93 H38         2.6780    1.0970    0.0350 hc        1 MOL      0.025159
     94 H39         1.7790    0.0750   -1.9740 hc        1 MOL     -0.000474
     95 H40         0.2060    0.9230   -1.6150 hc        1 MOL     -0.000474
     96 H41         1.0780    1.3780    1.5010 hc        1 MOL      0.011135
     97 H42         1.6750    3.0040    1.1690 hc        1 MOL      0.011135
     98 H43         0.1110    2.4710    0.5150 hc        1 MOL      0.011135
     99 H44        -0.1370    0.0260    0.3970 hc        1 MOL      0.000588
    100 H45        -0.0420   -1.3150   -0.7120 hc        1 MOL      0.000588
    101 H46         1.4010   -0.9540    0.3600 hc        1 MOL      0.000588
    102 N10         4.4820    1.9540   -2.2470 n         1 MOL     -0.309797
    103 C32         5.3900    2.0520   -1.1030 c3        1 MOL      0.073116
    104 C33         6.5010    1.0380   -1.1010 c         1 MOL      0.376711
    105 O16         6.7230    0.4480   -2.1620 o         1 MOL     -0.512527
    106 C34         5.9240    3.5150   -1.0360 c3        1 MOL     -0.074389
    107 C35         6.3460    4.0600   -2.3820 c         1 MOL      0.658006
    108 O17         5.5260    4.8940   -2.9300 o         1 MOL     -0.657083
    109 O18         7.4540    3.8070   -2.8710 o         1 MOL     -0.657083
    110 H47         4.9740    1.5470   -3.0280 hn        1 MOL      0.274323
    111 H48         4.8620    1.7840   -0.1840 h1        1 MOL      0.026504
    112 H49         6.7450    3.6350   -0.3330 hc        1 MOL     -0.005128
    113 H50         5.1860    4.1180   -0.5350 hc        1 MOL     -0.005128
    114 N11         7.1730    0.7820    0.0480 n         1 MOL     -0.273217
    115 C36         8.3150   -0.0010    0.3730 c3        1 MOL      0.359453
    116 C37         8.3000   -0.6390    1.7880 c         1 MOL      0.015296
    117 O19         7.9860    0.1080    2.7340 o         1 MOL     -0.462104
    118 C38         9.6080    0.8660    0.1870 c3        1 MOL     -0.594179
    119 C39        10.8520    0.0880    0.4360 ca        1 MOL      0.366857
    120 C40        11.4300    0.0450    1.7160 ca        1 MOL     -0.297308
    121 C41        11.3170   -0.6610   -0.5900 ca        1 MOL     -0.297308
    122 C42        12.5900   -0.7390    1.9340 ca        1 MOL     -0.067366
    123 C43        12.4360   -1.4720   -0.3800 ca        1 MOL     -0.067366
    124 C44        13.1160   -1.4630    0.8400 ca        1 MOL     -0.192512
    125 H51         6.7670    1.3570    0.7740 hn        1 MOL      0.263922
    126 H52         8.3100   -0.8230   -0.3320 h1        1 MOL      0.016504
    127 H53         9.5410    1.6980    0.8760 hc        1 MOL      0.170524
    128 H54         9.7360    1.2270   -0.8330 hc        1 MOL      0.170524
    129 H55        10.9290    0.5360    2.5340 ha        1 MOL      0.166511
    130 H56        10.9230   -0.5230   -1.5840 ha        1 MOL      0.166511
    131 H57        13.0210   -0.8120    2.9240 ha        1 MOL      0.098755
    132 H58        12.8540   -1.9910   -1.2320 ha        1 MOL      0.098755
    133 H59        13.9680   -2.0880    1.0730 ha        1 MOL      0.099267
    134 N12         8.6320   -1.8980    2.0110 n         1 MOL      0.335710
    135 C45         9.1720   -2.8770    1.1040 c3        1 MOL      0.095073
    136 C46         8.1640   -3.4240    0.0640 c         1 MOL      0.314515
    137 O20         8.4510   -3.7150   -1.1010 o         1 MOL     -0.565040
    138 C47         9.7580   -4.0530    1.9270 c3        1 MOL     -0.136954
    139 C48         9.0680   -3.8600    3.3810 c3        1 MOL     -0.143084
    140 C49         8.8020   -2.3760    3.3520 c3        1 MOL     -0.027252
    141 H60        10.0930   -2.5990    0.5810 h1        1 MOL      0.029812
    142 H61         9.5200   -5.0510    1.5590 hc        1 MOL      0.044325
    143 H62        10.8210   -3.8840    2.0890 hc        1 MOL      0.044325
    144 H63         8.0730   -4.3050    3.4270 hc        1 MOL      0.053860
    145 H64         9.7370   -4.1270    4.1950 hc        1 MOL      0.053860
    146 H65         7.9760   -2.1110    4.0050 h1        1 MOL      0.022513
    147 H66         9.6700   -1.8190    3.6960 h1        1 MOL      0.022513
    148 N13         6.9480   -3.4870    0.4770 n         1 MOL     -0.140551
    149 C50         5.7420   -3.8550   -0.3130 c3        1 MOL      0.076840
    150 C51         5.5870   -5.4030   -0.4480 c         1 MOL      0.384850
    151 O21         4.9930   -6.0490    0.3900 o         1 MOL     -0.549637
    152 C52         4.4870   -3.2810    0.3940 c3        1 MOL     -0.049262
    153 C53         4.4190   -1.7740    0.1870 c3        1 MOL     -0.136934
    154 C54         4.7430   -0.9400    1.4130 c         1 MOL      0.743762
    155 O22         4.5370    0.3030    1.5400 o         1 MOL     -0.682225
    156 O23         5.3370   -1.5060    2.3330 o         1 MOL     -0.682225
    157 H67         6.7970   -3.1130    1.3980 hn        1 MOL      0.159399
    158 H68         5.7590   -3.4690   -1.3290 h1        1 MOL      0.098664
    159 H69         4.4930   -3.5430    1.4620 hc        1 MOL      0.036949
    160 H70         3.6010   -3.7780    0.0120 hc        1 MOL      0.036949
    161 H71         3.4000   -1.6320   -0.1660 hc        1 MOL      0.002475
    162 H72         5.1480   -1.4340   -0.5560 hc        1 MOL      0.002475
    163 N14         6.1330   -6.1080   -1.4560 n         1 MOL     -0.297529
    164 C55         6.6720   -5.5940   -2.7630 c3        1 MOL     -0.124354
    165 H73         7.0080   -4.5640   -2.6360 h1        1 MOL      0.069153
    166 H74         7.5120   -6.2130   -3.0790 h1        1 MOL      0.069153
    167 H75         5.8880   -5.6290   -3.5190 h1        1 MOL      0.069153
    168 H76         6.1330   -7.1160   -1.3820 hn        1 MOL      0.246804
    169 Ca1        -7.4370    0.3480   -0.1770 Ca        1 MOL      1.602645
    170 O24        -8.5430    2.6800    0.5990 oh        1 MOL     -0.724844
    171 H77        -8.2400    3.5160    0.2390 ho        1 MOL      0.343182
    172 H78        -9.4990    2.7380    0.5620 ho        1 MOL      0.343182
    173 O25        -8.9740    1.3630   -2.0970 oh        1 MOL     -0.724844
    174 H79        -9.6410    0.7130   -2.3180 ho        1 MOL      0.343182
    175 H80        -9.4620    2.1710   -1.9450 ho        1 MOL      0.343182
    176 O26       -10.0360   -0.1370    0.4890 oh        1 MOL     -0.724844
    177 H81       -10.4510   -0.0400   -0.3630 ho        1 MOL      0.343182
    178 H82       -10.7610   -0.2560    1.0960 ho        1 MOL      0.343182
    179 O27        -5.7990    2.1450   -1.2330 oh        1 MOL     -0.724844
    180 H83        -4.8380    2.1790   -1.2050 ho        1 MOL      0.343182
    181 H84        -6.0400    2.7910   -1.8910 ho        1 MOL      0.343182
@<TRIPOS>BOND
     1    1    2 1   
     2    1    4 1   
     3    1    5 1   
     4    1    6 1   
     5    2    3 2   
     6    2    7 1   
     7    7    8 1   
     8    7   15 1   
     9    8    9 1   
    10    8   11 1   
    11    8   16 1   
    12    9   10 2   
    13    9   19 1   
    14   11   12 1   
    15   11   17 1   
    16   11   18 1   
    17   12   13 1   
    18   12   14 1   
    19   19   20 1   
    20   19   24 1   
    21   20   21 1   
    22   20   23 1   
    23   20   25 1   
    24   21   22 2   
    25   21   29 1   
    26   23   26 1   
    27   23   27 1   
    28   23   28 1   
    29   29   30 1   
    30   29   37 1   
    31   30   31 1   
    32   30   33 1   
    33   30   38 1   
    34   31   32 2   
    35   31   41 1   
    36   33   34 1   
    37   33   39 1   
    38   33   40 1   
    39   34   35 1   
    40   34   36 1   
    41   41   42 1   
    42   41   45 1   
    43   42   43 1   
    44   42   46 1   
    45   42   47 1   
    46   43   44 2   
    47   43   48 1   
    48   48   49 1   
    49   48   56 1   
    50   49   50 1   
    51   49   52 1   
    52   49   57 1   
    53   50   51 2   
    54   50   62 1   
    55   52   53 1   
    56   52   58 1   
    57   52   59 1   
    58   53   54 1   
    59   53   55 2   
    60   54   60 1   
    61   54   61 1   
    62   62   63 1   
    63   62   66 1   
    64   63   64 1   
    65   63   67 1   
    66   63   68 1   
    67   64   65 2   
    68   64   69 1   
    69   69   70 1   
    70   69   76 1   
    71   70   71 1   
    72   70   73 1   
    73   70   77 1   
    74   71   72 2   
    75   71   83 1   
    76   73   74 1   
    77   73   75 1   
    78   73   78 1   
    79   74   80 1   
    80   74   81 1   
    81   74   82 1   
    82   75   79 1   
    83   83   84 1   
    84   83   91 1   
    85   84   85 1   
    86   84   87 1   
    87   84   92 1   
    88   85   86 2   
    89   85  102 1   
    90   87   88 1   
    91   87   89 1   
    92   87   93 1   
    93   88   90 1   
    94   88   94 1   
    95   88   95 1   
    96   89   96 1   
    97   89   97 1   
    98   89   98 1   
    99   90   99 1   
   100   90  100 1   
   101   90  101 1   
   102  102  103 1   
   103  102  110 1   
   104  103  104 1   
   105  103  106 1   
   106  103  111 1   
   107  104  105 2   
   108  104  114 1   
   109  106  107 1   
   110  106  112 1   
   111  106  113 1   
   112  107  108 1   
   113  107  109 1   
   114  114  115 1   
   115  114  125 1   
   116  115  116 1   
   117  115  118 1   
   118  115  126 1   
   119  116  117 2   
   120  116  134 1   
   121  118  119 1   
   122  118  127 1   
   123  118  128 1   
   124  119  120 ar  
   125  119  121 ar  
   126  120  122 ar  
   127  120  129 1   
   128  121  123 ar  
   129  121  130 1   
   130  122  124 ar  
   131  122  131 1   
   132  123  124 ar  
   133  123  132 1   
   134  124  133 1   
   135  134  135 1   
   136  134  140 1   
   137  135  136 1   
   138  135  138 1   
   139  135  141 1   
   140  136  137 2   
   141  136  148 1   
   142  138  139 1   
   143  138  142 1   
   144  138  143 1   
   145  139  140 1   
   146  139  144 1   
   147  139  145 1   
   148  140  146 1   
   149  140  147 1   
   150  148  149 1   
   151  148  157 1   
   152  149  150 1   
   153  149  152 1   
   154  149  158 1   
   155  150  151 2   
   156  150  163 1   
   157  152  153 1   
   158  152  159 1   
   159  152  160 1   
   160  153  154 1   
   161  153  161 1   
   162  153  162 1   
   163  154  155 1   
   164  154  156 1   
   165  163  164 1   
   166  163  168 1   
   167  164  165 1   
   168  164  166 1   
   169  164  167 1   
   170  170  171 1   
   171  170  172 1   
   172  173  174 1   
   173  173  175 1   
   174  176  177 1   
   175  176  178 1   
   176  179  180 1   
   177  179  181 1   
@<TRIPOS>SUBSTRUCTURE
     1 MOL         1 TEMP              0 ****  ****    0 ROOT
