@<TRIPOS>MOLECULE
MOL
  192   187     1     0     0
SMALL
resp


@<TRIPOS>ATOM
      1 C1          9.3530    0.4690    1.5920 c3        1 MOL     -0.533167
      2 C2          8.1990    0.1930    0.6430 c         1 MOL      0.830574
      3 O1          7.0560    0.4370    1.1240 o         1 MOL     -0.697810
      4 H1          9.4040    1.5370    1.8010 hc        1 MOL      0.129426
      5 H2          9.1960   -0.0760    2.5230 hc        1 MOL      0.129426
      6 H3         10.2870    0.1440    1.1340 hc        1 MOL      0.129426
      7 N1          8.3510   -0.3520   -0.5630 n         1 MOL     -0.605905
      8 C3          7.3210   -0.5510   -1.5870 c3        1 MOL     -0.053552
      9 C4          6.4420   -1.8360   -1.3540 c         1 MOL      0.438910
     10 O2          5.8350   -2.4430   -2.2200 o         1 MOL     -0.422573
     11 C5          8.0280   -0.6090   -2.9470 c3        1 MOL     -0.162122
     12 C6          9.0290   -1.8020   -3.0010 c         1 MOL      0.704402
     13 O3          9.5590   -1.9680   -4.1200 o         1 MOL     -0.658519
     14 O4          9.3430   -2.5540   -1.9960 o         1 MOL     -0.658519
     15 H4          9.3260   -0.4780   -0.7910 hn        1 MOL      0.293848
     16 H5          6.7230    0.3530   -1.4360 h1        1 MOL      0.152401
     17 H6          8.4590    0.3650   -3.1480 hc        1 MOL      0.071104
     18 H7          7.2650   -0.7440   -3.7150 hc        1 MOL      0.071104
     19 N2          6.3900   -2.2670   -0.0780 n         1 MOL     -0.311145
     20 C7          5.8550   -3.5940    0.3530 c3        1 MOL      0.023479
     21 C8          4.3830   -3.9260    0.1630 c         1 MOL      0.549474
     22 O5          3.9860   -4.9350   -0.3460 o         1 MOL     -0.541356
     23 C9          6.2610   -3.8410    1.8360 c3        1 MOL      0.145469
     24 C10         7.7550   -3.6790    2.0580 c3        1 MOL     -0.123450
     25 C11         8.1090   -4.1880    3.4170 c3        1 MOL     -0.116871
     26 C12         9.5790   -4.0570    3.7240 c3        1 MOL      0.256008
     27 N3          9.9040   -4.4280    5.1240 n4        1 MOL     -0.416794
     28 H8          6.8460   -1.6300    0.5600 hn        1 MOL      0.201003
     29 H9          6.4350   -4.3490   -0.1810 h1        1 MOL      0.079242
     30 H10         6.0130   -4.8740    2.0860 hc        1 MOL     -0.026758
     31 H11         5.6140   -3.2030    2.4510 hc        1 MOL     -0.026758
     32 H12         7.9300   -2.6120    1.9150 hc        1 MOL      0.062243
     33 H13         8.3110   -4.2480    1.3120 hc        1 MOL      0.062243
     34 H14         7.8410   -5.2400    3.4280 hc        1 MOL      0.042635
     35 H15         7.5370   -3.6280    4.1510 hc        1 MOL      0.042635
     36 H16         9.8750   -3.0300    3.5270 hx        1 MOL      0.026113
     37 H17        10.1750   -4.6710    3.0450 hx        1 MOL      0.026113
     38 H18         9.0550   -4.2410    5.6400 hn        1 MOL      0.300466
     39 H19        10.1030   -5.4190    5.0880 hn        1 MOL      0.300466
     40 H20        10.6330   -3.8390    5.5110 hn        1 MOL      0.300466
     41 N4          3.4770   -3.0180    0.4520 n         1 MOL     -0.556524
     42 C13         3.5580   -1.6830    1.1110 c3        1 MOL      0.199596
     43 C14         3.6550   -0.5380    0.0480 c         1 MOL      0.207822
     44 O6          3.5210   -0.7480   -1.1680 o         1 MOL     -0.411383
     45 C15         2.3300   -1.5430    1.9970 c3        1 MOL     -0.342222
     46 C16         0.9910   -1.5020    1.2870 c         1 MOL      0.821485
     47 O7          0.6570   -0.6140    0.4410 o         1 MOL     -0.737138
     48 O8          0.1090   -2.2790    1.6890 o         1 MOL     -0.737138
     49 H21         2.6430   -3.1510   -0.1120 hn        1 MOL      0.382572
     50 H22         4.3700   -1.5820    1.8400 h1        1 MOL      0.097471
     51 H23         2.4580   -0.6110    2.5600 hc        1 MOL      0.080866
     52 H24         2.3290   -2.3740    2.7060 hc        1 MOL      0.080866
     53 N5          4.0060    0.6620    0.5670 n         1 MOL     -0.240804
     54 C17         4.2400    1.8730   -0.1700 c3        1 MOL     -0.065254
     55 C18         3.0350    2.6930   -0.6920 c         1 MOL      0.465711
     56 O9          1.8760    2.3230   -0.4270 o         1 MOL     -0.566764
     57 H25         3.9170    0.7520    1.5710 hn        1 MOL      0.250901
     58 H26         4.9210    1.6720   -0.9960 h1        1 MOL      0.090488
     59 H27         4.7590    2.5680    0.4950 h1        1 MOL      0.090488
     60 N6          3.4090    3.7470   -1.5180 n         1 MOL     -0.538357
     61 C19         2.4030    4.7300   -2.0300 c3        1 MOL      0.282512
     62 C20         2.9660    6.1750   -1.9390 c         1 MOL      0.436479
     63 O10         4.1810    6.4070   -1.7900 o         1 MOL     -0.538271
     64 C21         1.9960    4.3340   -3.4980 c3        1 MOL     -0.231658
     65 C22         1.5680    2.9200   -3.5510 c         1 MOL      0.748140
     66 O11         2.1480    2.1450   -4.3790 o         1 MOL     -0.679702
     67 O12         0.4650    2.5660   -3.0560 o         1 MOL     -0.679702
     68 H28         4.3850    4.0180   -1.4600 hn        1 MOL      0.308199
     69 H29         1.5540    4.7110   -1.3460 h1        1 MOL      0.054970
     70 H30         2.8090    4.5530   -4.1830 hc        1 MOL      0.055908
     71 H31         1.1880    4.9700   -3.8370 hc        1 MOL      0.055908
     72 N7          2.1320    7.2040   -1.8960 n         1 MOL     -0.354233
     73 C23         0.6780    7.3330   -2.1440 c3        1 MOL     -0.209757
     74 C24        -0.1760    6.7170   -1.0480 c         1 MOL      0.696826
     75 O13         0.1490    7.0000    0.0840 o         1 MOL     -0.538382
     76 H32         2.6140    8.0720   -1.7240 hn        1 MOL      0.307605
     77 H33         0.2600    6.9940   -3.0910 h1        1 MOL      0.104256
     78 H34         0.4550    8.3820   -1.9530 h1        1 MOL      0.104256
     79 N8         -1.2030    5.8910   -1.3120 n         1 MOL     -0.605764
     80 C25        -2.1020    5.3590   -0.2640 c3        1 MOL     -0.048914
     81 C26        -1.5270    4.0750    0.4300 c         1 MOL      0.710262
     82 O14        -0.8900    3.3370   -0.2860 o         1 MOL     -0.675942
     83 C27        -3.4690    5.1460   -0.7880 c3        1 MOL      0.330479
     84 C28        -4.6050    4.8940    0.1940 c3        1 MOL     -0.465121
     85 O15        -3.5260    4.0440   -1.7310 oh        1 MOL     -0.579513
     86 H35        -1.3820    5.4890   -2.2280 hn        1 MOL      0.309269
     87 H36        -2.2340    6.0240    0.5840 h1        1 MOL      0.082907
     88 H37        -3.7280    6.0060   -1.4050 h1        1 MOL      0.032756
     89 H38        -2.9080    4.1860   -2.4430 ho        1 MOL      0.388428
     90 H39        -4.5400    5.4450    1.1380 hc        1 MOL      0.138569
     91 H40        -5.5330    5.0980   -0.3270 hc        1 MOL      0.138569
     92 H41        -4.6640    3.8740    0.5620 hc        1 MOL      0.138569
     93 N9         -1.6360    3.7940    1.7440 n         1 MOL     -0.665806
     94 C29        -1.1700    2.6830    2.5640 c3        1 MOL      0.238705
     95 C30        -1.8460    1.2990    2.2920 c         1 MOL      0.476285
     96 O16        -1.9090    0.8590    1.1170 o         1 MOL     -0.531738
     97 C31         0.3990    2.4640    2.5830 c3        1 MOL      0.440268
     98 C32         1.0560    3.8660    2.6720 c3        1 MOL     -0.181898
     99 C33         0.8820    1.6500    3.8230 c3        1 MOL     -0.331448
    100 C34         0.8030    4.7220    3.9290 c3        1 MOL     -0.290531
    101 H42        -2.2090    4.4320    2.2790 hn        1 MOL      0.313159
    102 H43        -1.4130    2.8300    3.6120 h1        1 MOL     -0.034561
    103 H44         0.7460    2.0020    1.6580 hc        1 MOL     -0.073973
    104 H45         0.8220    4.4970    1.8180 hc        1 MOL      0.091174
    105 H46         2.1260    3.7040    2.5440 hc        1 MOL      0.091174
    106 H47         0.5130    2.1390    4.7260 hc        1 MOL      0.064380
    107 H48         0.4380    0.6460    3.7990 hc        1 MOL      0.064380
    108 H49         1.9660    1.6310    3.8700 hc        1 MOL      0.064380
    109 H50        -0.2310    4.9600    4.1540 hc        1 MOL      0.069342
    110 H51         1.2050    4.2420    4.8280 hc        1 MOL      0.069342
    111 H52         1.1770    5.7320    3.7870 hc        1 MOL      0.069342
    112 N10        -2.2700    0.6450    3.3650 n         1 MOL     -0.545472
    113 C35        -2.6670   -0.8310    3.2870 c3        1 MOL     -0.100991
    114 C36        -4.1980   -0.9850    3.2840 c         1 MOL      0.480437
    115 O17        -4.8040   -2.0470    3.5630 o         1 MOL     -0.553852
    116 C37        -1.9730   -1.6050    4.4070 c3        1 MOL      0.611074
    117 C38        -2.3420   -1.1600    5.8550 c3        1 MOL     -0.265003
    118 O18        -0.6110   -1.5140    4.1730 oh        1 MOL     -0.679772
    119 H53        -2.3500    1.1590    4.2320 hn        1 MOL      0.309751
    120 H54        -2.3380   -1.2720    2.3470 h1        1 MOL      0.175044
    121 H55        -2.3460   -2.6240    4.2640 h1        1 MOL     -0.075531
    122 H56        -0.4820   -1.7830    3.2680 ho        1 MOL      0.398707
    123 H57        -1.8250   -1.8650    6.5140 hc        1 MOL      0.052433
    124 H58        -2.0660   -0.1340    6.0820 hc        1 MOL      0.052433
    125 H59        -3.4310   -1.2820    5.9200 hc        1 MOL      0.052433
    126 N11        -4.8900    0.0960    2.9610 n         1 MOL     -0.242188
    127 C39        -6.3560    0.0830    2.8010 c3        1 MOL     -0.033723
    128 C40        -6.7130   -0.2750    1.3770 c         1 MOL      0.459275
    129 O19        -6.7340    0.5800    0.4780 o         1 MOL     -0.536600
    130 C41        -6.9010    1.5020    3.1110 c3        1 MOL      0.409637
    131 C42        -8.4580    1.6610    3.2470 c3        1 MOL     -0.436674
    132 O20        -6.1690    1.9100    4.2510 oh        1 MOL     -0.682479
    133 H60        -4.4830    1.0150    2.9230 hn        1 MOL      0.254772
    134 H61        -6.7270   -0.7580    3.3800 h1        1 MOL      0.056840
    135 H62        -6.5210    2.1840    2.3460 h1        1 MOL      0.009110
    136 H63        -6.7560    2.3530    4.8730 ho        1 MOL      0.414873
    137 H64        -8.9300    1.4310    2.2900 hc        1 MOL      0.114319
    138 H65        -8.8570    0.9120    3.9270 hc        1 MOL      0.114319
    139 H66        -8.6100    2.6580    3.6630 hc        1 MOL      0.114319
    140 N12        -6.8790   -1.5310    1.0750 n         1 MOL     -0.437837
    141 C43        -6.7200   -2.1930   -0.2680 c3        1 MOL      0.151062
    142 C44        -5.3260   -1.9010   -0.9270 c         1 MOL      0.477425
    143 O21        -4.8590   -0.7370   -1.0370 o         1 MOL     -0.467397
    144 C45        -7.8960   -1.8250   -1.1640 c3        1 MOL     -0.382152
    145 C46        -9.1710   -2.6240   -0.8340 c3        1 MOL      0.252360
    146 C47       -10.5920   -2.2920   -1.4770 c3        1 MOL     -0.076971
    147 C48       -11.4680   -3.5570   -1.3140 c3        1 MOL      0.050646
    148 N13       -12.8100   -3.4040   -1.8790 n4        1 MOL     -0.147027
    149 H67        -6.7460   -2.1500    1.8680 hn        1 MOL      0.276307
    150 H68        -6.7960   -3.2490   -0.0030 h1        1 MOL      0.042772
    151 H69        -7.6300   -1.9790   -2.2160 hc        1 MOL      0.138033
    152 H70        -8.0450   -0.7490   -1.1440 hc        1 MOL      0.138033
    153 H71        -9.3070   -2.6810    0.2430 hc        1 MOL     -0.045990
    154 H72        -8.9760   -3.6410   -1.1800 hc        1 MOL     -0.045990
    155 H73       -10.4570   -2.0470   -2.5300 hc        1 MOL      0.036935
    156 H74       -11.0470   -1.4550   -0.9450 hc        1 MOL      0.036935
    157 H75       -11.4380   -3.8540   -0.2660 hx        1 MOL      0.067340
    158 H76       -11.0480   -4.4200   -1.8350 hx        1 MOL      0.067340
    159 H77       -13.3420   -2.6860   -1.4130 hn        1 MOL      0.202321
    160 H78       -12.8640   -3.0110   -2.8100 hn        1 MOL      0.202321
    161 H79       -13.3650   -4.2400   -1.8070 hn        1 MOL      0.202321
    162 N14        -4.6720   -2.9830   -1.3450 n         1 MOL     -0.423325
    163 C49        -3.3240   -2.9690   -2.0060 c3        1 MOL      0.167569
    164 C50        -2.1890   -2.5900   -1.0610 c         1 MOL      0.480468
    165 O22        -1.5540   -1.5510   -1.2210 o         1 MOL     -0.621179
    166 C51        -3.0350   -4.3030   -2.8190 c3        1 MOL     -0.129546
    167 C52        -3.9140   -4.4140   -3.9910 c3        1 MOL     -0.242578
    168 C53        -3.7510   -5.8170   -4.6120 c         1 MOL      0.729102
    169 O23        -2.8220   -6.1260   -5.4190 o         1 MOL     -0.641507
    170 O24        -4.6070   -6.6380   -4.3280 o         1 MOL     -0.641507
    171 H80        -5.1660   -3.8420   -1.1990 hn        1 MOL      0.269528
    172 H81        -3.4270   -2.1800   -2.7630 h1        1 MOL      0.100789
    173 H82        -3.2320   -5.1380   -2.1480 hc        1 MOL      0.089883
    174 H83        -2.0010   -4.4540   -3.1410 hc        1 MOL      0.089883
    175 H84        -3.6800   -3.7140   -4.7890 hc        1 MOL      0.034269
    176 H85        -4.9440   -4.1320   -3.7880 hc        1 MOL      0.034269
    177 N15        -1.8660   -3.3510   -0.0120 n         1 MOL     -0.400087
    178 C54        -2.5100   -4.5500    0.5100 c3        1 MOL     -0.006764
    179 H86        -2.7740   -5.2090   -0.3170 h1        1 MOL      0.029515
    180 H87        -1.8260   -5.0680    1.1820 h1        1 MOL      0.029515
    181 H88        -3.4130   -4.2710    1.0530 h1        1 MOL      0.029515
    182 H89        -1.0850   -3.0260    0.5380 hn        1 MOL      0.365147
    183 Ca1        -0.3900    0.9400   -1.2960 Ca        1 MOL      1.792870
    184 O25        -2.9460    1.1210   -1.7340 oh        1 MOL     -0.861795
    185 H90        -3.5050    0.4250   -1.3830 ho        1 MOL      0.406222
    186 H91        -3.5580    1.8050   -2.0000 ho        1 MOL      0.406222
    187 O26         1.6980   -0.0970   -3.0880 oh        1 MOL     -0.861795
    188 H92         2.0650    0.5860   -3.6370 ho        1 MOL      0.406222
    189 H93         2.4450   -0.4230   -2.5810 ho        1 MOL      0.406222
    190 O27        -1.0210    0.2050   -3.8830 oh        1 MOL     -0.861795
    191 H94        -0.8410   -0.7160   -4.0880 ho        1 MOL      0.406222
    192 H95        -0.3090    0.6860   -4.3060 ho        1 MOL      0.406222
@<TRIPOS>BOND
     1    1    2 1   
     2    1    4 1   
     3    1    5 1   
     4    1    6 1   
     5    2    3 2   
     6    2    7 1   
     7    7    8 1   
     8    7   15 1   
     9    8    9 1   
    10    8   11 1   
    11    8   16 1   
    12    9   10 2   
    13    9   19 1   
    14   11   12 1   
    15   11   17 1   
    16   11   18 1   
    17   12   13 1   
    18   12   14 1   
    19   19   20 1   
    20   19   28 1   
    21   20   21 1   
    22   20   23 1   
    23   20   29 1   
    24   21   22 2   
    25   21   41 1   
    26   23   24 1   
    27   23   30 1   
    28   23   31 1   
    29   24   25 1   
    30   24   32 1   
    31   24   33 1   
    32   25   26 1   
    33   25   34 1   
    34   25   35 1   
    35   26   27 1   
    36   26   36 1   
    37   26   37 1   
    38   27   38 1   
    39   27   39 1   
    40   27   40 1   
    41   41   42 1   
    42   41   49 1   
    43   42   43 1   
    44   42   45 1   
    45   42   50 1   
    46   43   44 2   
    47   43   53 1   
    48   45   46 1   
    49   45   51 1   
    50   45   52 1   
    51   46   47 1   
    52   46   48 1   
    53   53   54 1   
    54   53   57 1   
    55   54   55 1   
    56   54   58 1   
    57   54   59 1   
    58   55   56 2   
    59   55   60 1   
    60   60   61 1   
    61   60   68 1   
    62   61   62 1   
    63   61   64 1   
    64   61   69 1   
    65   62   63 2   
    66   62   72 1   
    67   64   65 1   
    68   64   70 1   
    69   64   71 1   
    70   65   66 1   
    71   65   67 1   
    72   72   73 1   
    73   72   76 1   
    74   73   74 1   
    75   73   77 1   
    76   73   78 1   
    77   74   75 2   
    78   74   79 1   
    79   79   80 1   
    80   79   86 1   
    81   80   81 1   
    82   80   83 1   
    83   80   87 1   
    84   81   82 2   
    85   81   93 1   
    86   83   84 1   
    87   83   85 1   
    88   83   88 1   
    89   84   90 1   
    90   84   91 1   
    91   84   92 1   
    92   85   89 1   
    93   93   94 1   
    94   93  101 1   
    95   94   95 1   
    96   94   97 1   
    97   94  102 1   
    98   95   96 2   
    99   95  112 1   
   100   97   98 1   
   101   97   99 1   
   102   97  103 1   
   103   98  100 1   
   104   98  104 1   
   105   98  105 1   
   106   99  106 1   
   107   99  107 1   
   108   99  108 1   
   109  100  109 1   
   110  100  110 1   
   111  100  111 1   
   112  112  113 1   
   113  112  119 1   
   114  113  114 1   
   115  113  116 1   
   116  113  120 1   
   117  114  115 2   
   118  114  126 1   
   119  116  117 1   
   120  116  118 1   
   121  116  121 1   
   122  117  123 1   
   123  117  124 1   
   124  117  125 1   
   125  118  122 1   
   126  126  127 1   
   127  126  133 1   
   128  127  128 1   
   129  127  130 1   
   130  127  134 1   
   131  128  129 2   
   132  128  140 1   
   133  130  131 1   
   134  130  132 1   
   135  130  135 1   
   136  131  137 1   
   137  131  138 1   
   138  131  139 1   
   139  132  136 1   
   140  140  141 1   
   141  140  149 1   
   142  141  142 1   
   143  141  144 1   
   144  141  150 1   
   145  142  143 2   
   146  142  162 1   
   147  144  145 1   
   148  144  151 1   
   149  144  152 1   
   150  145  146 1   
   151  145  153 1   
   152  145  154 1   
   153  146  147 1   
   154  146  155 1   
   155  146  156 1   
   156  147  148 1   
   157  147  157 1   
   158  147  158 1   
   159  148  159 1   
   160  148  160 1   
   161  148  161 1   
   162  162  163 1   
   163  162  171 1   
   164  163  164 1   
   165  163  166 1   
   166  163  172 1   
   167  164  165 2   
   168  164  177 1   
   169  166  167 1   
   170  166  173 1   
   171  166  174 1   
   172  167  168 1   
   173  167  175 1   
   174  167  176 1   
   175  168  169 1   
   176  168  170 1   
   177  177  178 1   
   178  177  182 1   
   179  178  179 1   
   180  178  180 1   
   181  178  181 1   
   182  184  185 1   
   183  184  186 1   
   184  187  188 1   
   185  187  189 1   
   186  190  191 1   
   187  190  192 1   
@<TRIPOS>SUBSTRUCTURE
     1 MOL         1 TEMP              0 ****  ****    0 ROOT
