@<TRIPOS>MOLECULE
MOL
  192   187     1     0     0
SMALL
resp


@<TRIPOS>ATOM
      1 C1        -10.2620   -0.1290   -1.1260 c3        1 MOL     -0.377104
      2 C2         -8.8070   -0.1100   -0.7150 c         1 MOL      0.682375
      3 O1         -7.8750   -0.1410   -1.5390 o         1 MOL     -0.587689
      4 H1        -10.5180    0.8200   -1.5990 hc        1 MOL      0.100554
      5 H2        -10.4300   -0.9420   -1.8320 hc        1 MOL      0.100554
      6 H3        -10.8870   -0.2750   -0.2460 hc        1 MOL      0.100554
      7 N1         -8.5140   -0.1250    0.6290 n         1 MOL     -0.588396
      8 C3         -7.2130   -0.1130    1.2240 c3        1 MOL      0.048331
      9 C4         -6.5530   -1.5170    1.2310 c         1 MOL      0.554357
     10 O2         -6.1750   -2.0060    2.3210 o         1 MOL     -0.507298
     11 C5         -7.2870    0.4240    2.6680 c3        1 MOL     -0.139500
     12 C6         -7.9940    1.8060    2.6980 c         1 MOL      0.742216
     13 O3         -7.6210    2.7570    1.9800 o         1 MOL     -0.668050
     14 O4         -8.9050    1.8960    3.5060 o         1 MOL     -0.668050
     15 H4         -9.3300   -0.0740    1.2380 hn        1 MOL      0.337053
     16 H5         -6.4940    0.5290    0.7170 h1        1 MOL      0.116504
     17 H6         -6.3720    0.5990    3.2460 hc        1 MOL      0.049037
     18 H7         -7.8720   -0.2430    3.3070 hc        1 MOL      0.049037
     19 N2         -6.4820   -2.2700    0.1370 n         1 MOL     -0.397440
     20 C7         -5.9810   -3.6640   -0.0200 c3        1 MOL      0.015912
     21 C8         -4.5540   -3.8550    0.4990 c         1 MOL      0.554359
     22 O5         -4.3190   -4.9000    1.1110 o         1 MOL     -0.576436
     23 C9         -6.1630   -4.2750   -1.4100 c3        1 MOL     -0.010330
     24 C10        -7.5700   -4.0680   -2.0070 c3        1 MOL     -0.110210
     25 C11        -8.0590   -5.1700   -3.0070 c3        1 MOL      0.112564
     26 C12        -9.4770   -4.7560   -3.3720 c3        1 MOL     -0.049165
     27 N3         -9.8000   -5.1540   -4.7020 n4        1 MOL     -0.098543
     28 H8         -6.8120   -1.8680   -0.7350 hn        1 MOL      0.193555
     29 H9         -6.5000   -4.2750    0.7260 h1        1 MOL      0.079505
     30 H10        -5.8450   -5.3190   -1.4010 hc        1 MOL      0.032742
     31 H11        -5.4190   -3.8870   -2.1090 hc        1 MOL      0.032742
     32 H12        -7.6760   -3.0310   -2.3170 hc        1 MOL      0.027999
     33 H13        -8.2280   -4.1720   -1.1380 hc        1 MOL      0.027999
     34 H14        -8.0520   -6.1760   -2.5770 hc        1 MOL      0.008345
     35 H15        -7.4230   -5.2020   -3.8980 hc        1 MOL      0.008345
     36 H16        -9.3360   -3.6860   -3.4380 hx        1 MOL      0.086554
     37 H17       -10.2760   -4.9420   -2.6500 hx        1 MOL      0.086554
     38 H18       -10.2610   -6.0510   -4.6950 hn        1 MOL      0.214197
     39 H19       -10.4170   -4.5390   -5.2140 hn        1 MOL      0.214197
     40 H20        -9.0230   -5.4550   -5.2730 hn        1 MOL      0.214197
     41 N4         -3.6310   -2.9610    0.2820 n         1 MOL     -0.433084
     42 C13        -3.6630   -1.7380   -0.6350 c3        1 MOL      0.043935
     43 C14        -3.7840   -0.4230    0.2050 c         1 MOL      0.156172
     44 O6         -3.6750   -0.4450    1.4130 o         1 MOL     -0.348008
     45 C15        -2.5110   -1.9390   -1.6520 c3        1 MOL     -0.255596
     46 C16        -1.1760   -2.3500   -0.9840 c         1 MOL      0.635033
     47 O7         -0.6680   -1.6720   -0.0430 o         1 MOL     -0.610559
     48 O8         -0.5450   -3.3170   -1.5140 o         1 MOL     -0.610559
     49 H21        -2.8680   -3.1060    0.9280 hn        1 MOL      0.357836
     50 H22        -4.6390   -1.7720   -1.1300 h1        1 MOL      0.133084
     51 H23        -2.4360   -0.9440   -2.0980 hc        1 MOL      0.088987
     52 H24        -2.8390   -2.7150   -2.3490 hc        1 MOL      0.088987
     53 N5         -3.8330    0.7590   -0.4450 n         1 MOL     -0.361440
     54 C17        -3.9140    2.0780    0.2390 c3        1 MOL      0.041357
     55 C18        -2.6240    2.5840    0.8610 c         1 MOL      0.546057
     56 O9         -1.6010    1.9670    0.6450 o         1 MOL     -0.550045
     57 H25        -3.7660    0.7940   -1.4590 hn        1 MOL      0.289809
     58 H26        -4.7460    2.1220    0.9460 h1        1 MOL      0.028250
     59 H27        -4.1160    2.8330   -0.5110 h1        1 MOL      0.028250
     60 N6         -2.6690    3.6440    1.6620 n         1 MOL     -0.292857
     61 C19        -1.5800    4.3540    2.3040 c3        1 MOL      0.194804
     62 C20        -1.7770    5.9050    2.0770 c         1 MOL      0.578691
     63 O10        -2.8490    6.3860    1.6860 o         1 MOL     -0.555291
     64 C21        -1.3790    3.9910    3.7800 c3        1 MOL     -0.339629
     65 C22        -1.0080    2.5010    3.9240 c         1 MOL      0.699624
     66 O11        -1.5900    1.9180    4.8120 o         1 MOL     -0.661179
     67 O12        -0.3800    1.8430    3.1090 o         1 MOL     -0.661179
     68 H28        -3.5470    4.1230    1.8330 hn        1 MOL      0.240464
     69 H29        -0.6260    4.1760    1.7950 h1        1 MOL      0.043219
     70 H30        -2.2810    4.3290    4.2890 hc        1 MOL      0.085016
     71 H31        -0.4910    4.5190    4.1210 hc        1 MOL      0.085016
     72 N7         -0.8830    6.8170    2.4420 n         1 MOL     -0.564322
     73 C23         0.5780    6.6290    2.3880 c3        1 MOL      0.020430
     74 C24         1.1840    6.4730    0.9890 c         1 MOL      0.502178
     75 O13         0.6630    7.1750    0.0910 o         1 MOL     -0.488645
     76 H32        -1.1890    7.7770    2.3160 hn        1 MOL      0.358721
     77 H33         0.8790    5.7860    3.0110 h1        1 MOL      0.053325
     78 H34         1.0350    7.4470    2.9220 h1        1 MOL      0.053325
     79 N8          1.9990    5.4330    0.7990 n         1 MOL     -0.658351
     80 C25         2.4250    4.8750   -0.4060 c3        1 MOL      0.307210
     81 C26         1.6060    3.6250   -0.8040 c         1 MOL      0.898435
     82 O14         1.1410    2.9090    0.1210 o         1 MOL     -0.771521
     83 C27         3.8990    4.6200   -0.3780 c3        1 MOL      0.190631
     84 C28         4.5410    4.2510   -1.7660 c3        1 MOL     -0.178938
     85 O15         4.2930    3.6510    0.5370 oh        1 MOL     -0.575665
     86 H35         2.1920    4.9420    1.6570 hn        1 MOL      0.314368
     87 H36         2.2580    5.5960   -1.2080 h1        1 MOL     -0.033156
     88 H37         4.4290    5.5250   -0.0750 h1        1 MOL      0.025006
     89 H38         4.1670    4.1040    1.3760 ho        1 MOL      0.388121
     90 H39         4.3850    4.9810   -2.5710 hc        1 MOL      0.050420
     91 H40         5.6230    4.1750   -1.6570 hc        1 MOL      0.050420
     92 H41         4.1760    3.3100   -2.1770 hc        1 MOL      0.050420
     93 N9          1.3020    3.5410   -2.1140 n         1 MOL     -0.609894
     94 C29         0.4630    2.6100   -2.8640 c3        1 MOL     -0.030141
     95 C30         0.7230    1.1910   -2.6160 c         1 MOL      0.575845
     96 O16         0.1790    0.5940   -1.6380 o         1 MOL     -0.572295
     97 C31        -1.0480    2.9520   -2.7160 c3        1 MOL      0.480314
     98 C32        -1.3320    4.4710   -2.9090 c3        1 MOL     -0.295622
     99 C33        -1.8410    2.0650   -3.7140 c3        1 MOL     -0.487019
    100 C34        -2.6580    4.9350   -2.3550 c3        1 MOL      0.072293
    101 H42         1.6550    4.2960   -2.6920 hn        1 MOL      0.286820
    102 H43         0.6480    2.8140   -3.9210 h1        1 MOL      0.033583
    103 H44        -1.3990    2.7330   -1.7140 hc        1 MOL     -0.076259
    104 H45        -1.2360    4.7460   -3.9580 hc        1 MOL      0.050251
    105 H46        -0.6250    5.0290   -2.2890 hc        1 MOL      0.050251
    106 H47        -2.0600    1.0500   -3.3740 hc        1 MOL      0.117412
    107 H48        -2.7970    2.5510   -3.8770 hc        1 MOL      0.117412
    108 H49        -1.3180    2.1230   -4.6670 hc        1 MOL      0.117412
    109 H50        -2.7620    4.6060   -1.3280 hc        1 MOL     -0.000043
    110 H51        -2.7360    6.0220   -2.3640 hc        1 MOL     -0.000043
    111 H52        -3.5110    4.5310   -2.9130 hc        1 MOL     -0.000043
    112 N10         1.7070    0.5960   -3.2590 n         1 MOL     -0.544058
    113 C35         2.0910   -0.8350   -3.0860 c3        1 MOL     -0.098463
    114 C36         3.6230   -1.0440   -3.2260 c         1 MOL      0.465799
    115 O17         4.0770   -2.1630   -3.0650 o         1 MOL     -0.564435
    116 C37         1.2600   -1.7370   -4.0640 c3        1 MOL      0.669061
    117 C38         1.1510   -1.2070   -5.4770 c3        1 MOL     -0.278451
    118 O18         0.0070   -2.0240   -3.6470 oh        1 MOL     -0.630586
    119 H53         2.2740    1.2270   -3.8000 hn        1 MOL      0.324831
    120 H54         1.8560   -1.2100   -2.0930 h1        1 MOL      0.147553
    121 H55         1.7610   -2.6980   -4.1360 h1        1 MOL     -0.068469
    122 H56         0.1070   -2.5970   -2.8950 ho        1 MOL      0.331781
    123 H57         0.1460   -0.8900   -5.7630 hc        1 MOL      0.038750
    124 H58         1.8760   -0.4080   -5.6020 hc        1 MOL      0.038750
    125 H59         1.5190   -2.0240   -6.1000 hc        1 MOL      0.038750
    126 N11         4.4100    0.0240   -3.2110 n         1 MOL     -0.196041
    127 C39         5.9060   -0.0570   -3.1120 c3        1 MOL      0.016114
    128 C40         6.3960   -0.3040   -1.6440 c         1 MOL      0.492358
    129 O19         6.8020    0.5240   -0.8470 o         1 MOL     -0.475678
    130 C41         6.5360    1.2120   -3.5960 c3        1 MOL      0.385372
    131 C42         8.0560    1.2160   -3.6590 c3        1 MOL     -0.336690
    132 O20         6.0750    1.4110   -4.9660 oh        1 MOL     -0.646658
    133 H60         3.9660    0.9040   -3.4350 hn        1 MOL      0.157893
    134 H61         6.2630   -0.9020   -3.6910 h1        1 MOL      0.075353
    135 H62         6.2550    2.0670   -2.9800 h1        1 MOL     -0.039234
    136 H63         6.4440    2.2360   -5.2930 ho        1 MOL      0.390082
    137 H64         8.5710    1.9630   -4.2650 hc        1 MOL      0.091415
    138 H65         8.4320    1.3440   -2.6420 hc        1 MOL      0.091415
    139 H66         8.3640    0.3190   -4.2000 hc        1 MOL      0.091415
    140 N12         6.2390   -1.6220   -1.3080 n         1 MOL     -0.673585
    141 C43         6.3600   -2.3120    0.0220 c3        1 MOL      0.190590
    142 C44         5.0990   -2.1440    0.7820 c         1 MOL      0.621838
    143 O21         4.4870   -1.1090    0.7160 o         1 MOL     -0.475343
    144 C45         7.6100   -1.9340    0.7950 c3        1 MOL     -0.313031
    145 C46         8.9150   -2.2920    0.1200 c3        1 MOL      0.127409
    146 C47        10.1520   -1.7880    0.9630 c3        1 MOL      0.016285
    147 C48        11.3740   -2.2620    0.1750 c3        1 MOL      0.083651
    148 N13        12.7010   -1.9070    0.7680 n4        1 MOL     -0.167779
    149 H67         5.6570   -2.1280   -1.9690 hn        1 MOL      0.368376
    150 H68         6.4070   -3.3650   -0.2540 h1        1 MOL      0.041407
    151 H69         7.6300   -2.5030    1.7180 hc        1 MOL      0.103496
    152 H70         7.6260   -0.8950    1.1160 hc        1 MOL      0.103496
    153 H71         9.0020   -1.9080   -0.8990 hc        1 MOL     -0.005744
    154 H72         9.0470   -3.3730   -0.0070 hc        1 MOL     -0.005744
    155 H73        10.1790   -2.3000    1.9220 hc        1 MOL      0.027363
    156 H74        10.2370   -0.6960    1.0400 hc        1 MOL      0.027363
    157 H75        11.2930   -1.7420   -0.7760 hx        1 MOL      0.035633
    158 H76        11.4430   -3.3420   -0.0000 hx        1 MOL      0.035633
    159 H77        13.3900   -1.8960    0.0310 hn        1 MOL      0.200131
    160 H78        12.5900   -1.0120    1.2200 hn        1 MOL      0.200131
    161 H79        13.0300   -2.6250    1.4010 hn        1 MOL      0.200131
    162 N14         4.6430   -3.1600    1.5500 n         1 MOL     -0.546968
    163 C49         3.5470   -3.0890    2.4960 c3        1 MOL      0.177565
    164 C50         2.2050   -2.7680    1.8300 c         1 MOL      0.317917
    165 O22         1.5700   -1.7860    2.2540 o         1 MOL     -0.547771
    166 C51         3.4850   -4.2380    3.5150 c3        1 MOL     -0.006687
    167 C52         4.6460   -4.3970    4.4910 c3        1 MOL     -0.301419
    168 C53         4.3700   -5.4770    5.5390 c         1 MOL      0.665834
    169 O23         3.9470   -5.2050    6.6870 o         1 MOL     -0.613627
    170 O24         4.4110   -6.6930    5.1810 o         1 MOL     -0.613627
    171 H80         5.2180   -3.9900    1.6380 hn        1 MOL      0.289660
    172 H81         3.7310   -2.1600    3.0500 h1        1 MOL      0.026949
    173 H82         3.2370   -5.1510    2.9890 hc        1 MOL      0.086570
    174 H83         2.5890   -3.9310    4.0540 hc        1 MOL      0.086570
    175 H84         4.8530   -3.4970    5.0740 hc        1 MOL      0.044394
    176 H85         5.5120   -4.4930    3.8480 hc        1 MOL      0.044394
    177 N15         1.6960   -3.4360    0.7470 n         1 MOL     -0.192141
    178 C54         2.1880   -4.7670    0.1580 c3        1 MOL     -0.126833
    179 H86         2.4790   -5.4370    0.9670 h1        1 MOL      0.064267
    180 H87         1.3870   -5.2260   -0.4230 h1        1 MOL      0.064267
    181 H88         3.0460   -4.5840   -0.4890 h1        1 MOL      0.064267
    182 H89         0.9720   -2.9630    0.2330 hn        1 MOL      0.196802
    183 Ca1         0.3800    0.3190    1.0650 Ca        1 MOL      1.757157
    184 O25         2.7770    0.6950   -0.1440 oh        1 MOL     -0.880794
    185 H90         3.3670   -0.0370    0.0700 ho        1 MOL      0.412544
    186 H91         3.1530    1.4480    0.3080 ho        1 MOL      0.412544
    187 O26         2.3470    1.0700    2.7760 oh        1 MOL     -0.880794
    188 H92         2.0670    1.5470    3.5570 ho        1 MOL      0.412544
    189 H93         3.1730    0.6640    3.0350 ho        1 MOL      0.412544
    190 O27        -1.4930   -0.7020    2.9750 oh        1 MOL     -0.880794
    191 H94        -2.3710   -0.7960    2.6150 ho        1 MOL      0.412544
    192 H95        -1.5790   -0.0030    3.6300 ho        1 MOL      0.412544
@<TRIPOS>BOND
     1    1    2 1   
     2    1    4 1   
     3    1    5 1   
     4    1    6 1   
     5    2    3 2   
     6    2    7 1   
     7    7    8 1   
     8    7   15 1   
     9    8    9 1   
    10    8   11 1   
    11    8   16 1   
    12    9   10 2   
    13    9   19 1   
    14   11   12 1   
    15   11   17 1   
    16   11   18 1   
    17   12   13 1   
    18   12   14 1   
    19   19   20 1   
    20   19   28 1   
    21   20   21 1   
    22   20   23 1   
    23   20   29 1   
    24   21   22 2   
    25   21   41 1   
    26   23   24 1   
    27   23   30 1   
    28   23   31 1   
    29   24   25 1   
    30   24   32 1   
    31   24   33 1   
    32   25   26 1   
    33   25   34 1   
    34   25   35 1   
    35   26   27 1   
    36   26   36 1   
    37   26   37 1   
    38   27   38 1   
    39   27   39 1   
    40   27   40 1   
    41   41   42 1   
    42   41   49 1   
    43   42   43 1   
    44   42   45 1   
    45   42   50 1   
    46   43   44 2   
    47   43   53 1   
    48   45   46 1   
    49   45   51 1   
    50   45   52 1   
    51   46   47 1   
    52   46   48 1   
    53   53   54 1   
    54   53   57 1   
    55   54   55 1   
    56   54   58 1   
    57   54   59 1   
    58   55   56 2   
    59   55   60 1   
    60   60   61 1   
    61   60   68 1   
    62   61   62 1   
    63   61   64 1   
    64   61   69 1   
    65   62   63 2   
    66   62   72 1   
    67   64   65 1   
    68   64   70 1   
    69   64   71 1   
    70   65   66 1   
    71   65   67 1   
    72   72   73 1   
    73   72   76 1   
    74   73   74 1   
    75   73   77 1   
    76   73   78 1   
    77   74   75 2   
    78   74   79 1   
    79   79   80 1   
    80   79   86 1   
    81   80   81 1   
    82   80   83 1   
    83   80   87 1   
    84   81   82 2   
    85   81   93 1   
    86   83   84 1   
    87   83   85 1   
    88   83   88 1   
    89   84   90 1   
    90   84   91 1   
    91   84   92 1   
    92   85   89 1   
    93   93   94 1   
    94   93  101 1   
    95   94   95 1   
    96   94   97 1   
    97   94  102 1   
    98   95   96 2   
    99   95  112 1   
   100   97   98 1   
   101   97   99 1   
   102   97  103 1   
   103   98  100 1   
   104   98  104 1   
   105   98  105 1   
   106   99  106 1   
   107   99  107 1   
   108   99  108 1   
   109  100  109 1   
   110  100  110 1   
   111  100  111 1   
   112  112  113 1   
   113  112  119 1   
   114  113  114 1   
   115  113  116 1   
   116  113  120 1   
   117  114  115 2   
   118  114  126 1   
   119  116  117 1   
   120  116  118 1   
   121  116  121 1   
   122  117  123 1   
   123  117  124 1   
   124  117  125 1   
   125  118  122 1   
   126  126  127 1   
   127  126  133 1   
   128  127  128 1   
   129  127  130 1   
   130  127  134 1   
   131  128  129 2   
   132  128  140 1   
   133  130  131 1   
   134  130  132 1   
   135  130  135 1   
   136  131  137 1   
   137  131  138 1   
   138  131  139 1   
   139  132  136 1   
   140  140  141 1   
   141  140  149 1   
   142  141  142 1   
   143  141  144 1   
   144  141  150 1   
   145  142  143 2   
   146  142  162 1   
   147  144  145 1   
   148  144  151 1   
   149  144  152 1   
   150  145  146 1   
   151  145  153 1   
   152  145  154 1   
   153  146  147 1   
   154  146  155 1   
   155  146  156 1   
   156  147  148 1   
   157  147  157 1   
   158  147  158 1   
   159  148  159 1   
   160  148  160 1   
   161  148  161 1   
   162  162  163 1   
   163  162  171 1   
   164  163  164 1   
   165  163  166 1   
   166  163  172 1   
   167  164  165 2   
   168  164  177 1   
   169  166  167 1   
   170  166  173 1   
   171  166  174 1   
   172  167  168 1   
   173  167  175 1   
   174  167  176 1   
   175  168  169 1   
   176  168  170 1   
   177  177  178 1   
   178  177  182 1   
   179  178  179 1   
   180  178  180 1   
   181  178  181 1   
   182  184  185 1   
   183  184  186 1   
   184  187  188 1   
   185  187  189 1   
   186  190  191 1   
   187  190  192 1   
@<TRIPOS>SUBSTRUCTURE
     1 MOL         1 TEMP              0 ****  ****    0 ROOT
