@<TRIPOS>MOLECULE
MOL
  181   177     1     0     0
SMALL
resp


@<TRIPOS>ATOM
      1 C1          1.9470   -1.0000    4.8720 c3        1 MOL     -0.364064
      2 C2          3.1300   -0.1570    4.3960 c         1 MOL      0.628300
      3 O1          3.1120    1.0980    4.3760 o         1 MOL     -0.527568
      4 H1          2.0070   -1.1330    5.9510 hc        1 MOL      0.102316
      5 H2          1.0150   -0.4940    4.6200 hc        1 MOL      0.102316
      6 H3          1.9750   -1.9740    4.3840 hc        1 MOL      0.102316
      7 N1          4.3100   -0.7900    4.1230 n         1 MOL     -0.460023
      8 C3          5.6080   -0.1180    3.7460 c3        1 MOL      0.055840
      9 C4          6.2620   -0.9040    2.5460 c         1 MOL      0.461425
     10 O2          6.6720   -0.3230    1.5620 o         1 MOL     -0.461906
     11 C5          6.4790   -0.0770    4.9930 c3        1 MOL     -0.030064
     12 C6          7.8780    0.3970    4.7820 c         1 MOL      0.767389
     13 O3          8.8060   -0.3370    4.9500 o         1 MOL     -0.749065
     14 O4          7.9180    1.6410    4.4270 o         1 MOL     -0.749065
     15 H4          4.4150   -1.7890    4.2380 hn        1 MOL      0.222778
     16 H5          5.3800    0.8810    3.3630 h1        1 MOL      0.080096
     17 H6          6.4690   -1.1090    5.3490 hc        1 MOL     -0.037309
     18 H7          6.0400    0.4750    5.8200 hc        1 MOL     -0.037309
     19 N2          6.3940   -2.2440    2.7310 n         1 MOL     -0.569022
     20 C7          7.1250   -3.2050    1.8570 c3        1 MOL      0.131784
     21 C8          6.7600   -3.1460    0.4020 c         1 MOL      0.484843
     22 O5          7.5310   -3.2570   -0.5730 o         1 MOL     -0.511277
     23 C9          8.6450   -2.9930    2.0940 c3        1 MOL     -0.392192
     24 H8          6.1580   -2.5470    3.6640 hn        1 MOL      0.346964
     25 H9          6.8540   -4.1880    2.2290 h1        1 MOL      0.056898
     26 H10         8.8920   -1.9400    1.8960 hc        1 MOL      0.126892
     27 H11         8.9130   -3.2540    3.1100 hc        1 MOL      0.126892
     28 H12         9.3360   -3.5200    1.4370 hc        1 MOL      0.126892
     29 N3          5.4500   -3.0450    0.1030 n         1 MOL     -0.470373
     30 C10         4.8010   -2.9120   -1.1760 c3        1 MOL      0.076751
     31 C11         5.3150   -1.6700   -2.0690 c         1 MOL      0.553619
     32 O6          5.2640   -1.6800   -3.3060 o         1 MOL     -0.475311
     33 C12         4.8920   -4.2170   -2.0180 c3        1 MOL     -0.207905
     34 C13         3.7900   -4.1980   -3.0680 c         1 MOL      0.645217
     35 O7          3.9120   -5.0220   -3.9670 o         1 MOL     -0.677884
     36 O8          2.7810   -3.4680   -2.9510 o         1 MOL     -0.677884
     37 H13         4.8150   -3.0040    0.8910 hn        1 MOL      0.269234
     38 H14         3.7550   -2.7320   -0.9270 h1        1 MOL      0.060029
     39 H15         4.7750   -5.1090   -1.4090 hc        1 MOL      0.072764
     40 H16         5.8280   -4.2680   -2.5630 hc        1 MOL      0.072764
     41 N4          6.0010   -0.6540   -1.5150 n         1 MOL     -0.370090
     42 C14         6.6060    0.4950   -2.2600 c3        1 MOL     -0.119726
     43 C15         5.6500    1.4250   -3.0590 c         1 MOL      0.311594
     44 O9          6.1580    2.1740   -3.9570 o         1 MOL     -0.507867
     45 H17         6.3710   -0.7620   -0.5850 hn        1 MOL      0.272440
     46 H18         7.2670    0.0150   -2.9840 h1        1 MOL      0.123643
     47 H19         7.1880    1.1770   -1.6360 h1        1 MOL      0.123643
     48 N5          4.3090    1.2490   -2.8560 n         1 MOL     -0.014456
     49 C16         3.2120    1.7690   -3.6910 c3        1 MOL     -0.235965
     50 C17         3.1690    3.3360   -3.8230 c         1 MOL      0.467767
     51 O10         2.6400    3.8960   -4.7840 o         1 MOL     -0.495992
     52 C18         1.8650    1.1310   -3.2280 c3        1 MOL     -0.118931
     53 C19         1.9220   -0.3680   -3.1830 c         1 MOL      0.395266
     54 N6          2.3550   -1.0600   -4.2500 n         1 MOL     -0.706986
     55 O11         1.4800   -0.9560   -2.2050 o         1 MOL     -0.420733
     56 H20         4.0970    0.7040   -2.0340 hn        1 MOL      0.121944
     57 H21         3.4310    1.4300   -4.7030 h1        1 MOL      0.127455
     58 H22         1.0610    1.5410   -3.8340 hc        1 MOL      0.119216
     59 H23         1.5660    1.4510   -2.2220 hc        1 MOL      0.119216
     60 H24         2.6200   -0.5650   -5.0840 hn        1 MOL      0.341423
     61 H25         2.5570   -2.0280   -4.0360 hn        1 MOL      0.341423
     62 N7          3.5280    4.0370   -2.7500 n         1 MOL     -0.238772
     63 C20         3.1040    5.4650   -2.5460 c3        1 MOL     -0.356999
     64 C21         1.6410    5.7200   -2.2030 c         1 MOL      0.661408
     65 O12         0.6990    5.3390   -2.9680 o         1 MOL     -0.486567
     66 H26         3.9000    3.5710   -1.9350 hn        1 MOL      0.249416
     67 H27         3.2250    5.8770   -3.5480 h1        1 MOL      0.144372
     68 H28         3.6910    5.8680   -1.7280 h1        1 MOL      0.144372
     69 N8          1.3860    6.5370   -1.1030 n         1 MOL     -0.462906
     70 C22         0.1250    7.3140   -0.9110 c3        1 MOL     -0.402207
     71 C23        -0.8650    6.6170   -0.0130 c         1 MOL      0.548979
     72 O13        -1.9020    7.0860    0.3170 o         1 MOL     -0.570832
     73 C24         0.3760    8.7250   -0.3370 c3        1 MOL      0.536041
     74 C25         1.0430    8.7390    1.0070 c3        1 MOL     -0.258558
     75 O14         1.1800    9.5100   -1.1810 oh        1 MOL     -0.620596
     76 H29         2.1840    6.7790   -0.5310 hn        1 MOL      0.305528
     77 H30        -0.3220    7.3960   -1.8980 h1        1 MOL      0.198364
     78 H31        -0.5690    9.2540   -0.2300 h1        1 MOL      0.019837
     79 H32         2.0330    9.0920   -1.1280 ho        1 MOL      0.350780
     80 H33         0.3740    8.5710    1.8520 hc        1 MOL      0.052962
     81 H34         1.8490    7.9980    1.0300 hc        1 MOL      0.052962
     82 H35         1.4350    9.7310    1.2010 hc        1 MOL      0.052962
     83 N9         -0.6500    5.3570    0.1980 n         1 MOL     -0.092127
     84 C26        -1.3850    4.3650    1.0270 c3        1 MOL     -0.372192
     85 C27        -1.3450    3.0030    0.2980 c         1 MOL      0.561006
     86 O15        -0.2900    2.7260   -0.2160 o         1 MOL     -0.464993
     87 C28        -1.1310    4.2950    2.6020 c3        1 MOL      0.170764
     88 C29         0.3430    3.9780    2.8860 c3        1 MOL      0.038686
     89 C30        -1.5300    5.6400    3.2140 c3        1 MOL     -0.381333
     90 C31         0.6710    3.8970    4.3490 c3        1 MOL     -0.296854
     91 H36         0.2040    4.9620   -0.1640 hn        1 MOL      0.145720
     92 H37        -2.3980    4.7510    0.9090 h1        1 MOL      0.131389
     93 H38        -1.7640    3.4990    3.0100 hc        1 MOL      0.018707
     94 H39         0.9880    4.6420    2.2960 hc        1 MOL      0.044138
     95 H40         0.5040    2.9800    2.4870 hc        1 MOL      0.044138
     96 H41        -0.8460    6.4490    2.9410 hc        1 MOL      0.099521
     97 H42        -2.5580    5.8650    2.9470 hc        1 MOL      0.099521
     98 H43        -1.4170    5.5180    4.2880 hc        1 MOL      0.099521
     99 H44         0.4740    4.8660    4.7920 hc        1 MOL      0.073121
    100 H45        -0.0140    3.2280    4.8740 hc        1 MOL      0.073121
    101 H46         1.7020    3.5450    4.3910 hc        1 MOL      0.073121
    102 N10        -2.3390    2.1030    0.4750 n         1 MOL     -0.482299
    103 C32        -2.3660    0.7410   -0.1810 c3        1 MOL     -0.051250
    104 C33        -3.8360    0.1200   -0.2590 c         1 MOL      0.449966
    105 O16        -4.0110   -1.1110   -0.1630 o         1 MOL     -0.444169
    106 C34        -1.3230   -0.1460    0.6390 c3        1 MOL      0.017663
    107 C35        -0.7310   -1.3170   -0.1760 c         1 MOL      0.463889
    108 O17         0.2380   -1.9310    0.2830 o         1 MOL     -0.668805
    109 O18        -1.0480   -1.4520   -1.3800 o         1 MOL     -0.668805
    110 H47        -3.1690    2.3630    0.9890 hn        1 MOL      0.292605
    111 H48        -2.0730    0.8390   -1.2170 h1        1 MOL      0.119990
    112 H49        -1.7280   -0.4030    1.6210 hc        1 MOL      0.047348
    113 H50        -0.4760    0.4930    0.9050 hc        1 MOL      0.047348
    114 N11        -4.8770    1.0240   -0.3190 n         1 MOL     -0.346826
    115 C36        -6.2220    0.6040   -0.5720 c3        1 MOL      0.032455
    116 C37        -6.7180   -0.3910    0.4080 c         1 MOL      0.374239
    117 O19        -6.4960   -0.1300    1.6100 o         1 MOL     -0.508400
    118 C38        -7.1020    1.8640   -0.4400 c3        1 MOL     -0.183384
    119 C39        -8.4800    1.5800   -0.8350 ca        1 MOL      0.065392
    120 C40        -8.7960    1.5080   -2.2240 ca        1 MOL     -0.157741
    121 C41        -9.5170    1.4910    0.1580 ca        1 MOL     -0.157741
    122 C42       -10.1420    1.3880   -2.5640 ca        1 MOL     -0.071042
    123 C43       -10.8280    1.3420   -0.1810 ca        1 MOL     -0.071042
    124 C44       -11.1520    1.3230   -1.5500 ca        1 MOL     -0.188534
    125 H51        -4.7170    2.0130   -0.1930 hn        1 MOL      0.231134
    126 H52        -6.3470    0.2350   -1.5930 h1        1 MOL      0.061817
    127 H53        -6.7510    2.7330   -1.0070 hc        1 MOL      0.099189
    128 H54        -7.0670    2.2290    0.5830 hc        1 MOL      0.099189
    129 H55        -8.0540    1.5700   -3.0130 ha        1 MOL      0.126294
    130 H56        -9.2270    1.5190    1.2020 ha        1 MOL      0.126294
    131 H57       -10.4220    1.4660   -3.6020 ha        1 MOL      0.104075
    132 H58       -11.5590    1.2900    0.6070 ha        1 MOL      0.104075
    133 H59       -12.2060    1.2210   -1.7690 ha        1 MOL      0.116641
    134 N12        -7.1010   -1.6170   -0.0390 n         1 MOL     -0.104188
    135 C45        -7.5220   -2.6520    0.8750 c3        1 MOL     -0.074134
    136 C46        -6.5350   -3.1680    1.9460 c         1 MOL      0.295547
    137 O20        -6.9510   -3.6090    2.9770 o         1 MOL     -0.505203
    138 C47        -8.0560   -3.7870   -0.0380 c3        1 MOL      0.168551
    139 C48        -8.4350   -3.2540   -1.4160 c3        1 MOL     -0.256426
    140 C49        -7.4730   -2.0760   -1.4350 c3        1 MOL      0.190730
    141 H60        -8.3350   -2.2630    1.4800 h1        1 MOL      0.092248
    142 H61        -7.3470   -4.6200   -0.0850 hc        1 MOL     -0.009308
    143 H62        -8.9810   -4.1550    0.4080 hc        1 MOL     -0.009308
    144 H63        -8.2210   -3.9670   -2.2120 hc        1 MOL      0.074120
    145 H64        -9.4430   -2.8180   -1.4250 hc        1 MOL      0.074120
    146 H65        -6.5810   -2.2870   -2.0370 h1        1 MOL      0.000466
    147 H66        -7.8550   -1.2520   -2.0360 h1        1 MOL      0.000466
    148 N13        -5.2350   -3.0560    1.7220 n         1 MOL      0.028492
    149 C50        -4.1700   -3.3910    2.7250 c3        1 MOL     -0.292719
    150 C51        -4.0540   -2.2780    3.8130 c         1 MOL      0.412750
    151 O21        -3.5070   -2.4560    4.9200 o         1 MOL     -0.541377
    152 C52        -2.8380   -3.7650    2.0390 c3        1 MOL      0.187482
    153 C53        -2.5520   -5.1920    1.6360 c3        1 MOL     -0.289941
    154 C54        -1.3770   -5.3130    0.5380 c         1 MOL      0.671358
    155 O22        -0.2080   -5.6710    0.8340 o         1 MOL     -0.698240
    156 O23        -1.6050   -4.7340   -0.5590 o         1 MOL     -0.698240
    157 H67        -4.8990   -2.5040    0.9570 hn        1 MOL      0.033317
    158 H68        -4.4370   -4.2790    3.2920 h1        1 MOL      0.152015
    159 H69        -2.0050   -3.4800    2.6810 hc        1 MOL      0.046563
    160 H70        -2.7440   -3.1140    1.1710 hc        1 MOL      0.046563
    161 H71        -3.4580   -5.6910    1.2790 hc        1 MOL      0.045744
    162 H72        -2.1120   -5.6860    2.4940 hc        1 MOL      0.045744
    163 N14        -4.5170   -1.0440    3.4620 n         1 MOL     -0.088372
    164 C55        -4.5900    0.0780    4.4530 c3        1 MOL     -0.288069
    165 H73        -3.9680    0.9050    4.1120 h1        1 MOL      0.107828
    166 H74        -5.6230    0.4150    4.5450 h1        1 MOL      0.107828
    167 H75        -4.2330   -0.2700    5.4220 h1        1 MOL      0.107828
    168 H76        -4.8580   -0.8950    2.5260 hn        1 MOL      0.220470
    169 Ca1         0.2420   -3.4630   -1.9770 Ca        1 MOL      1.708401
    170 O24         0.8190   -5.7850   -3.0200 oh        1 MOL     -0.798561
    171 H77         1.6600   -5.7860   -3.4960 ho        1 MOL      0.389459
    172 H78         0.3050   -6.4580   -3.4600 ho        1 MOL      0.389459
    173 O25         0.2590   -3.2340   -4.7990 oh        1 MOL     -0.798561
    174 H79         0.8490   -3.5940   -5.4640 ho        1 MOL      0.389459
    175 H80        -0.0750   -2.4260   -5.1780 ho        1 MOL      0.389459
    176 O26        -2.0690   -4.1700   -3.3050 oh        1 MOL     -0.798561
    177 H81        -2.5080   -4.8580   -3.8040 ho        1 MOL      0.389459
    178 H82        -2.7060   -3.8970   -2.6560 ho        1 MOL      0.389459
    179 O27         1.9150   -4.7010   -0.2580 oh        1 MOL     -0.798561
    180 H83         2.6240   -4.7880    0.3770 ho        1 MOL      0.389459
    181 H84         1.2290   -5.2870    0.0710 ho        1 MOL      0.389459
@<TRIPOS>BOND
     1    1    2 1   
     2    1    4 1   
     3    1    5 1   
     4    1    6 1   
     5    2    3 2   
     6    2    7 1   
     7    7    8 1   
     8    7   15 1   
     9    8    9 1   
    10    8   11 1   
    11    8   16 1   
    12    9   10 2   
    13    9   19 1   
    14   11   12 1   
    15   11   17 1   
    16   11   18 1   
    17   12   13 1   
    18   12   14 1   
    19   19   20 1   
    20   19   24 1   
    21   20   21 1   
    22   20   23 1   
    23   20   25 1   
    24   21   22 2   
    25   21   29 1   
    26   23   26 1   
    27   23   27 1   
    28   23   28 1   
    29   29   30 1   
    30   29   37 1   
    31   30   31 1   
    32   30   33 1   
    33   30   38 1   
    34   31   32 2   
    35   31   41 1   
    36   33   34 1   
    37   33   39 1   
    38   33   40 1   
    39   34   35 1   
    40   34   36 1   
    41   41   42 1   
    42   41   45 1   
    43   42   43 1   
    44   42   46 1   
    45   42   47 1   
    46   43   44 2   
    47   43   48 1   
    48   48   49 1   
    49   48   56 1   
    50   49   50 1   
    51   49   52 1   
    52   49   57 1   
    53   50   51 2   
    54   50   62 1   
    55   52   53 1   
    56   52   58 1   
    57   52   59 1   
    58   53   54 1   
    59   53   55 2   
    60   54   60 1   
    61   54   61 1   
    62   62   63 1   
    63   62   66 1   
    64   63   64 1   
    65   63   67 1   
    66   63   68 1   
    67   64   65 2   
    68   64   69 1   
    69   69   70 1   
    70   69   76 1   
    71   70   71 1   
    72   70   73 1   
    73   70   77 1   
    74   71   72 2   
    75   71   83 1   
    76   73   74 1   
    77   73   75 1   
    78   73   78 1   
    79   74   80 1   
    80   74   81 1   
    81   74   82 1   
    82   75   79 1   
    83   83   84 1   
    84   83   91 1   
    85   84   85 1   
    86   84   87 1   
    87   84   92 1   
    88   85   86 2   
    89   85  102 1   
    90   87   88 1   
    91   87   89 1   
    92   87   93 1   
    93   88   90 1   
    94   88   94 1   
    95   88   95 1   
    96   89   96 1   
    97   89   97 1   
    98   89   98 1   
    99   90   99 1   
   100   90  100 1   
   101   90  101 1   
   102  102  103 1   
   103  102  110 1   
   104  103  104 1   
   105  103  106 1   
   106  103  111 1   
   107  104  105 2   
   108  104  114 1   
   109  106  107 1   
   110  106  112 1   
   111  106  113 1   
   112  107  108 1   
   113  107  109 1   
   114  114  115 1   
   115  114  125 1   
   116  115  116 1   
   117  115  118 1   
   118  115  126 1   
   119  116  117 2   
   120  116  134 1   
   121  118  119 1   
   122  118  127 1   
   123  118  128 1   
   124  119  120 ar  
   125  119  121 ar  
   126  120  122 ar  
   127  120  129 1   
   128  121  123 ar  
   129  121  130 1   
   130  122  124 ar  
   131  122  131 1   
   132  123  124 ar  
   133  123  132 1   
   134  124  133 1   
   135  134  135 1   
   136  134  140 1   
   137  135  136 1   
   138  135  138 1   
   139  135  141 1   
   140  136  137 2   
   141  136  148 1   
   142  138  139 1   
   143  138  142 1   
   144  138  143 1   
   145  139  140 1   
   146  139  144 1   
   147  139  145 1   
   148  140  146 1   
   149  140  147 1   
   150  148  149 1   
   151  148  157 1   
   152  149  150 1   
   153  149  152 1   
   154  149  158 1   
   155  150  151 2   
   156  150  163 1   
   157  152  153 1   
   158  152  159 1   
   159  152  160 1   
   160  153  154 1   
   161  153  161 1   
   162  153  162 1   
   163  154  155 1   
   164  154  156 1   
   165  163  164 1   
   166  163  168 1   
   167  164  165 1   
   168  164  166 1   
   169  164  167 1   
   170  170  171 1   
   171  170  172 1   
   172  173  174 1   
   173  173  175 1   
   174  176  177 1   
   175  176  178 1   
   176  179  180 1   
   177  179  181 1   
@<TRIPOS>SUBSTRUCTURE
     1 MOL         1 TEMP              0 ****  ****    0 ROOT
