@<TRIPOS>MOLECULE
MOL
  188   182     1     0     0
SMALL
resp


@<TRIPOS>ATOM
      1 C1         -6.7670   -1.9600    2.7480 c3        1 MOL     -0.349787
      2 C2         -7.2760   -1.7460    1.3560 c         1 MOL      0.645377
      3 O1         -6.5780   -1.2810    0.4490 o         1 MOL     -0.542837
      4 H1         -6.5670   -0.9940    3.2130 hc        1 MOL      0.084276
      5 H2         -7.5160   -2.4940    3.3330 hc        1 MOL      0.084276
      6 H3         -5.8470   -2.5440    2.7140 hc        1 MOL      0.084276
      7 N1         -8.5700   -1.9590    1.0930 n         1 MOL     -0.508041
      8 C3         -9.3890   -1.6680   -0.1160 c3        1 MOL      0.272871
      9 C4         -9.1130   -0.3230   -0.7790 c         1 MOL      0.438996
     10 O2         -8.9380   -0.2880   -1.9420 o         1 MOL     -0.436368
     11 C5         -9.3350   -2.8560   -1.0710 c3        1 MOL     -0.412090
     12 C6        -10.3930   -2.9590   -2.2110 c         1 MOL      0.702654
     13 O3        -10.2270   -3.5730   -3.2800 o         1 MOL     -0.625191
     14 O4        -11.4730   -2.3590   -2.0070 o         1 MOL     -0.625191
     15 H4         -9.2230   -2.2470    1.7960 hn        1 MOL      0.290416
     16 H5        -10.4160   -1.5510    0.2470 h1        1 MOL     -0.013554
     17 H6         -9.1560   -3.8290   -0.6090 hc        1 MOL      0.116589
     18 H7         -8.3910   -2.7500   -1.5880 hc        1 MOL      0.116589
     19 N2         -8.8310    0.7330    0.0110 n         1 MOL     -0.369929
     20 C7         -8.5450    2.0960   -0.3990 c3        1 MOL      0.036164
     21 C8         -7.0410    2.4380   -0.5090 c         1 MOL      0.550013
     22 O5         -6.7040    3.5890   -0.7710 o         1 MOL     -0.592096
     23 C9         -9.3230    3.0780    0.5180 c3        1 MOL      0.088235
     24 C10        -9.0160    3.3900    1.9260 c3        1 MOL     -0.057393
     25 C11       -10.0040    4.3150    2.5750 c3        1 MOL     -0.048172
     26 C12        -9.4860    5.0420    3.8340 c3        1 MOL      0.000336
     27 N3         -9.1420    4.2330    4.9930 n4        1 MOL     -0.213697
     28 H8         -9.0340    0.5420    0.9860 hn        1 MOL      0.170376
     29 H9         -8.9170    2.3140   -1.4070 h1        1 MOL      0.116914
     30 H10       -10.3440    2.6800    0.5310 hc        1 MOL     -0.002357
     31 H11        -9.4790    4.0260    0.0020 hc        1 MOL     -0.002357
     32 H12        -8.0300    3.8610    1.9310 hc        1 MOL      0.010057
     33 H13        -8.7490    2.5610    2.5920 hc        1 MOL      0.010057
     34 H14       -10.9130    3.7450    2.7760 hc        1 MOL      0.057037
     35 H15       -10.3510    5.1520    1.9610 hc        1 MOL      0.057037
     36 H16       -10.1820    5.8610    4.0490 hx        1 MOL      0.090651
     37 H17        -8.6080    5.6010    3.4910 hx        1 MOL      0.090651
     38 H18        -9.8230    3.5340    5.2570 hn        1 MOL      0.201886
     39 H19        -8.3300    3.6490    4.8480 hn        1 MOL      0.201886
     40 H20        -8.9340    4.7470    5.8360 hn        1 MOL      0.201886
     41 N4         -6.1740    1.4700   -0.2160 n         1 MOL     -0.454004
     42 C13        -4.7270    1.7760   -0.1750 c3        1 MOL      0.095806
     43 C14        -4.1040    2.3170   -1.5250 c         1 MOL      0.680976
     44 O6         -4.3190    1.7150   -2.5890 o         1 MOL     -0.497311
     45 C15        -3.9370    0.5580    0.3150 c3        1 MOL     -0.462148
     46 C16        -2.5060    0.9050    0.5750 c         1 MOL      1.011801
     47 O7         -2.1780    1.4580    1.6440 o         1 MOL     -0.862837
     48 O8         -1.7150    0.8340   -0.3800 o         1 MOL     -0.862837
     49 H21        -6.4880    0.5230   -0.0580 hn        1 MOL      0.289836
     50 H22        -4.6820    2.6250    0.5120 h1        1 MOL      0.011200
     51 H23        -3.9800   -0.1870   -0.4830 hc        1 MOL      0.137831
     52 H24        -4.4850    0.1780    1.1740 hc        1 MOL      0.137831
     53 N5         -3.3550    3.3870   -1.4650 n         1 MOL     -0.512707
     54 C17        -2.6430    4.0510   -2.6420 c3        1 MOL      0.184329
     55 C18        -1.7280    3.1310   -3.5160 c         1 MOL      0.420058
     56 O9         -1.5550    3.4360   -4.7120 o         1 MOL     -0.539010
     57 H25        -3.3200    4.0450   -0.7040 hn        1 MOL      0.310765
     58 H26        -2.0140    4.8490   -2.2650 h1        1 MOL      0.008808
     59 H27        -3.2640    4.5640   -3.3750 h1        1 MOL      0.008808
     60 N6         -1.2830    1.9980   -2.9830 n         1 MOL     -0.050313
     61 C19        -0.6560    0.9410   -3.8070 c3        1 MOL     -0.046455
     62 C20        -1.2110   -0.4300   -3.5170 c         1 MOL      0.378293
     63 O10        -0.5490   -1.3660   -3.9110 o         1 MOL     -0.431810
     64 C21         0.9280    1.0580   -3.8520 c3        1 MOL     -0.293491
     65 C22         1.5700    1.1440   -2.5130 c         1 MOL      0.648544
     66 N7          2.8450    1.2530   -2.5190 n         1 MOL     -0.745696
     67 O11         1.0240    1.1240   -1.4080 o         1 MOL     -0.627201
     68 H28        -1.4330    1.8540   -1.9980 hn        1 MOL     -0.029481
     69 H29        -1.0110    1.0700   -4.8310 h1        1 MOL      0.148028
     70 H30         1.2390    1.9560   -4.3880 hc        1 MOL      0.118042
     71 H31         1.3520    0.1860   -4.3370 hc        1 MOL      0.118042
     72 H32         3.3360    1.1040   -3.3930 hn        1 MOL      0.347362
     73 H33         3.2800    1.2500   -1.6040 hn        1 MOL      0.347362
     74 N8         -2.3970   -0.5970   -2.8730 n         1 MOL     -0.027528
     75 C23        -3.0720   -1.8910   -2.7510 c3        1 MOL     -0.352982
     76 C24        -2.5530   -2.7620   -1.5480 c         1 MOL      0.648331
     77 O12        -2.9260   -3.9140   -1.3690 o         1 MOL     -0.533826
     78 H34        -2.7690    0.2080   -2.3920 hn        1 MOL      0.026056
     79 H35        -3.0300   -2.3530   -3.7340 h1        1 MOL      0.178411
     80 H36        -4.0920   -1.6380   -2.4730 h1        1 MOL      0.178411
     81 N9         -1.7930   -2.1670   -0.6560 n         1 MOL     -0.696914
     82 C25        -1.1770   -2.7700    0.5190 c3        1 MOL      0.181892
     83 C26         0.1210   -2.0750    0.8460 c         1 MOL      0.142933
     84 O13         0.2340   -0.8710    0.9440 o         1 MOL     -0.495459
     85 C27        -2.0540   -2.6990    1.7360 c3        1 MOL     -0.168196
     86 C28        -1.3150   -3.0330    3.0740 ca        1 MOL     -0.080355
     87 C29        -0.7240   -4.3480    3.1490 ca        1 MOL     -0.013614
     88 C30        -1.2340   -2.1370    4.1350 ca        1 MOL     -0.013614
     89 C31        -0.2150   -4.7090    4.3840 ca        1 MOL     -0.394652
     90 C32        -0.5900   -2.5000    5.3560 ca        1 MOL     -0.394652
     91 C33        -0.2000   -3.8230    5.4700 ca        1 MOL      0.444685
     92 O14         0.4420   -4.2710    6.6040 oh        1 MOL     -0.479694
     93 H37        -1.5930   -1.2030   -0.8590 hn        1 MOL      0.526631
     94 H38        -0.9350   -3.8070    0.2950 h1        1 MOL      0.065226
     95 H39        -2.8740   -3.3860    1.4980 hc        1 MOL      0.118947
     96 H40        -2.3880   -1.6600    1.8020 hc        1 MOL      0.118947
     97 H41        -0.7860   -5.0780    2.3470 ha        1 MOL      0.116275
     98 H42        -1.6910   -1.1570    4.0810 ha        1 MOL      0.116275
     99 H43         0.1930   -5.7030    4.4890 ha        1 MOL      0.181236
    100 H44        -0.4020   -1.7850    6.1400 ha        1 MOL      0.181236
    101 H45         0.5130   -3.5520    7.2310 ho        1 MOL      0.349040
    102 N10         1.2040   -2.8150    0.9270 n         1 MOL     -0.055458
    103 C34         2.6240   -2.4000    1.0780 c3        1 MOL      0.002375
    104 C35         3.1060   -1.9340   -0.3670 c         1 MOL      0.363298
    105 O15         3.9600   -1.0870   -0.5060 o         1 MOL     -0.512761
    106 C36         3.4440   -3.5240    1.7080 c3        1 MOL      0.177132
    107 C37         3.2040   -3.6770    3.2340 c3        1 MOL      0.058054
    108 C38         4.9570   -3.3790    1.5130 c3        1 MOL     -0.375017
    109 C39         3.2960   -5.1130    3.7660 c3        1 MOL     -0.227474
    110 H46         1.0170   -3.8110    0.8890 hn        1 MOL      0.190394
    111 H47         2.6080   -1.5910    1.8050 h1        1 MOL      0.022677
    112 H48         3.0590   -4.3980    1.1810 hc        1 MOL     -0.053064
    113 H49         2.1350   -3.5130    3.3820 hc        1 MOL      0.000904
    114 H50         3.7710   -2.9360    3.8020 hc        1 MOL      0.000904
    115 H51         5.2990   -3.5840    0.4980 hc        1 MOL      0.110743
    116 H52         5.1740   -2.3590    1.8630 hc        1 MOL      0.110743
    117 H53         5.6280   -3.9730    2.1300 hc        1 MOL      0.110743
    118 H54         2.5690   -5.7750    3.2910 hc        1 MOL      0.065160
    119 H55         4.3280   -5.4630    3.7500 hc        1 MOL      0.065160
    120 H56         2.9090   -5.1500    4.7880 hc        1 MOL      0.065160
    121 N11         2.6480   -2.6080   -1.3930 n         1 MOL     -0.093253
    122 C40         2.8320   -2.2830   -2.8280 c3        1 MOL     -0.494952
    123 C41         4.3450   -2.0980   -3.1670 c         1 MOL      0.551434
    124 O16         4.6730   -1.1980   -3.9190 o         1 MOL     -0.510726
    125 C42         2.2280   -3.4150   -3.6970 c3        1 MOL      0.104498
    126 O17         0.8420   -3.5320   -3.4140 oh        1 MOL     -0.536391
    127 H57         2.1520   -3.4730   -1.2220 hn        1 MOL      0.217545
    128 H58         2.2970   -1.3600   -3.0240 h1        1 MOL      0.342261
    129 H59         2.7000   -4.3780   -3.5060 h1        1 MOL      0.089704
    130 H60         2.2850   -3.1220   -4.7500 h1        1 MOL      0.089704
    131 H61         0.4680   -2.6650   -3.6060 ho        1 MOL      0.318873
    132 N12         5.2800   -2.7910   -2.5350 n         1 MOL     -0.397928
    133 C43         6.7120   -2.7100   -2.6530 c3        1 MOL      0.216414
    134 C44         7.3800   -1.3090   -2.5270 c         1 MOL      0.465587
    135 O18         8.5440   -1.0940   -2.9390 o         1 MOL     -0.554696
    136 C45         7.1580   -3.4630   -3.9480 c3        1 MOL     -0.401770
    137 H62         4.9420   -3.5080   -1.9120 hn        1 MOL      0.244259
    138 H63         7.0000   -3.2050   -1.7240 h1        1 MOL      0.040206
    139 H64         7.0610   -2.6900   -4.7170 hc        1 MOL      0.118447
    140 H65         8.2020   -3.7130   -3.7710 hc        1 MOL      0.118447
    141 H66         6.6170   -4.3390   -4.3120 hc        1 MOL      0.118447
    142 N13         6.8080   -0.4550   -1.7310 n         1 MOL     -0.344451
    143 C46         7.3150    0.8890   -1.4990 c3        1 MOL      0.175091
    144 C47         8.0240    0.9030   -0.0800 c         1 MOL      0.453949
    145 O19         7.5120    0.2840    0.8240 o         1 MOL     -0.506346
    146 C48         6.1170    1.9190   -1.5930 c3        1 MOL     -0.255675
    147 H67         5.9190   -0.6820   -1.3020 hn        1 MOL      0.176939
    148 H68         7.9980    1.2060   -2.2810 h1        1 MOL      0.069428
    149 H69         5.7610    1.9850   -2.6290 hc        1 MOL      0.072883
    150 H70         5.2770    1.5520   -1.0060 hc        1 MOL      0.072883
    151 H71         6.4610    2.8930   -1.2340 hc        1 MOL      0.072883
    152 N14         9.0720    1.6650    0.0130 n         1 MOL     -0.365594
    153 C49         9.8280    2.0870    1.2220 c3        1 MOL      0.050723
    154 C50        10.1980    0.9590    2.1830 c         1 MOL      0.381739
    155 O20        10.1740    1.0760    3.4560 o         1 MOL     -0.492002
    156 C51         9.1160    3.1910    2.0250 c3        1 MOL      0.065884
    157 C52         8.8430    4.4120    1.2160 c3        1 MOL     -0.022827
    158 C53        10.1300    5.1120    0.7240 c         1 MOL      0.619968
    159 O21        10.4000    5.1320   -0.5090 o         1 MOL     -0.653073
    160 O22        10.8120    5.6420    1.6330 o         1 MOL     -0.653073
    161 H72         9.5370    1.9690   -0.8230 hn        1 MOL      0.237090
    162 H73        10.7380    2.5500    0.8440 h1        1 MOL      0.091367
    163 H74         9.7270    3.4800    2.8770 hc        1 MOL      0.009639
    164 H75         8.1680    2.8630    2.4460 hc        1 MOL      0.009639
    165 H76         8.2370    5.1060    1.7930 hc        1 MOL     -0.048345
    166 H77         8.1880    4.1000    0.4020 hc        1 MOL     -0.048345
    167 N15        10.6590   -0.2260    1.6860 n         1 MOL     -0.373037
    168 C54        10.6150   -1.5220    2.4250 c3        1 MOL      0.014308
    169 H78        10.6910   -1.3320    3.4960 h1        1 MOL      0.050283
    170 H79         9.6750   -2.0300    2.2130 h1        1 MOL      0.050283
    171 H80        11.4480   -2.1500    2.1070 h1        1 MOL      0.050283
    172 H81        10.8300   -0.2630    0.6870 hn        1 MOL      0.255892
    173 Ca1         0.3200    1.8920    1.1770 Ca        1 MOL      1.762326
    174 O23         2.9680    1.1430    0.8910 oh        1 MOL     -0.787502
    175 H82         3.7980    1.5300    1.1410 ho        1 MOL      0.395910
    176 H83         3.1870    0.2740    0.5480 ho        1 MOL      0.395910
    177 O24        -0.0470    3.8510   -0.7640 oh        1 MOL     -0.787502
    178 H84         0.0530    4.7420   -0.4330 ho        1 MOL      0.395910
    179 H85        -0.0460    3.9520   -1.7200 ho        1 MOL      0.395910
    180 O25         2.1270    3.7820    1.5200 oh        1 MOL     -0.787502
    181 H86         2.4400    4.3130    0.7830 ho        1 MOL      0.395910
    182 H87         2.3730    4.2850    2.2990 ho        1 MOL      0.395910
    183 O26        -0.9660    4.0290    2.1850 oh        1 MOL     -0.787502
    184 H88        -0.5590    4.4440    2.9510 ho        1 MOL      0.395910
    185 H89        -1.5440    4.6960    1.8260 ho        1 MOL      0.395910
    186 O27         0.7730    1.1880    3.6670 oh        1 MOL     -0.787502
    187 H90        -0.0700    0.9740    4.0580 ho        1 MOL      0.395910
    188 H91         1.3560    1.3210    4.4120 ho        1 MOL      0.395910
@<TRIPOS>BOND
     1    1    2 1   
     2    1    4 1   
     3    1    5 1   
     4    1    6 1   
     5    2    3 2   
     6    2    7 1   
     7    7    8 1   
     8    7   15 1   
     9    8    9 1   
    10    8   11 1   
    11    8   16 1   
    12    9   10 2   
    13    9   19 1   
    14   11   12 1   
    15   11   17 1   
    16   11   18 1   
    17   12   13 1   
    18   12   14 1   
    19   19   20 1   
    20   19   28 1   
    21   20   21 1   
    22   20   23 1   
    23   20   29 1   
    24   21   22 2   
    25   21   41 1   
    26   23   24 1   
    27   23   30 1   
    28   23   31 1   
    29   24   25 1   
    30   24   32 1   
    31   24   33 1   
    32   25   26 1   
    33   25   34 1   
    34   25   35 1   
    35   26   27 1   
    36   26   36 1   
    37   26   37 1   
    38   27   38 1   
    39   27   39 1   
    40   27   40 1   
    41   41   42 1   
    42   41   49 1   
    43   42   43 1   
    44   42   45 1   
    45   42   50 1   
    46   43   44 2   
    47   43   53 1   
    48   45   46 1   
    49   45   51 1   
    50   45   52 1   
    51   46   47 1   
    52   46   48 1   
    53   53   54 1   
    54   53   57 1   
    55   54   55 1   
    56   54   58 1   
    57   54   59 1   
    58   55   56 2   
    59   55   60 1   
    60   60   61 1   
    61   60   68 1   
    62   61   62 1   
    63   61   64 1   
    64   61   69 1   
    65   62   63 2   
    66   62   74 1   
    67   64   65 1   
    68   64   70 1   
    69   64   71 1   
    70   65   66 1   
    71   65   67 2   
    72   66   72 1   
    73   66   73 1   
    74   74   75 1   
    75   74   78 1   
    76   75   76 1   
    77   75   79 1   
    78   75   80 1   
    79   76   77 2   
    80   76   81 1   
    81   81   82 1   
    82   81   93 1   
    83   82   83 1   
    84   82   85 1   
    85   82   94 1   
    86   83   84 2   
    87   83  102 1   
    88   85   86 1   
    89   85   95 1   
    90   85   96 1   
    91   86   87 ar  
    92   86   88 ar  
    93   87   89 ar  
    94   87   97 1   
    95   88   90 ar  
    96   88   98 1   
    97   89   91 ar  
    98   89   99 1   
    99   90   91 ar  
   100   90  100 1   
   101   91   92 1   
   102   92  101 1   
   103  102  103 1   
   104  102  110 1   
   105  103  104 1   
   106  103  106 1   
   107  103  111 1   
   108  104  105 2   
   109  104  121 1   
   110  106  107 1   
   111  106  108 1   
   112  106  112 1   
   113  107  109 1   
   114  107  113 1   
   115  107  114 1   
   116  108  115 1   
   117  108  116 1   
   118  108  117 1   
   119  109  118 1   
   120  109  119 1   
   121  109  120 1   
   122  121  122 1   
   123  121  127 1   
   124  122  123 1   
   125  122  125 1   
   126  122  128 1   
   127  123  124 2   
   128  123  132 1   
   129  125  126 1   
   130  125  129 1   
   131  125  130 1   
   132  126  131 1   
   133  132  133 1   
   134  132  137 1   
   135  133  134 1   
   136  133  136 1   
   137  133  138 1   
   138  134  135 2   
   139  134  142 1   
   140  136  139 1   
   141  136  140 1   
   142  136  141 1   
   143  142  143 1   
   144  142  147 1   
   145  143  144 1   
   146  143  146 1   
   147  143  148 1   
   148  144  145 2   
   149  144  152 1   
   150  146  149 1   
   151  146  150 1   
   152  146  151 1   
   153  152  153 1   
   154  152  161 1   
   155  153  154 1   
   156  153  156 1   
   157  153  162 1   
   158  154  155 2   
   159  154  167 1   
   160  156  157 1   
   161  156  163 1   
   162  156  164 1   
   163  157  158 1   
   164  157  165 1   
   165  157  166 1   
   166  158  159 1   
   167  158  160 1   
   168  167  168 1   
   169  167  172 1   
   170  168  169 1   
   171  168  170 1   
   172  168  171 1   
   173  174  175 1   
   174  174  176 1   
   175  177  178 1   
   176  177  179 1   
   177  180  181 1   
   178  180  182 1   
   179  183  184 1   
   180  183  185 1   
   181  186  187 1   
   182  186  188 1   
@<TRIPOS>SUBSTRUCTURE
     1 MOL         1 TEMP              0 ****  ****    0 ROOT
