@<TRIPOS>MOLECULE
MOL
  192   187     1     0     0
SMALL
resp


@<TRIPOS>ATOM
      1 C1         10.1830    0.3500    1.0830 c3        1 MOL     -0.489752
      2 C2          8.9050   -0.4550    0.6870 c         1 MOL      0.739941
      3 O1          8.0380   -0.6100    1.5580 o         1 MOL     -0.622011
      4 H1         10.6920   -0.1580    1.9020 hc        1 MOL      0.132611
      5 H2         10.8520    0.4160    0.2250 hc        1 MOL      0.132611
      6 H3          9.8970    1.3530    1.4010 hc        1 MOL      0.132611
      7 N1          8.7430   -0.7590   -0.5570 n         1 MOL     -0.551211
      8 C3          7.5330   -0.9460   -1.3070 c3        1 MOL      0.251642
      9 C4          6.9290   -2.3480   -1.1180 c         1 MOL      0.414127
     10 O2          6.7990   -3.1760   -2.0010 o         1 MOL     -0.466905
     11 C5          7.6560   -0.5710   -2.7780 c3        1 MOL     -0.236145
     12 C6          8.6230    0.5220   -3.1440 c         1 MOL      0.817615
     13 O3          8.3880    1.6610   -2.7870 o         1 MOL     -0.698932
     14 O4          9.5890    0.3000   -3.9500 o         1 MOL     -0.698932
     15 H4          9.4950   -0.4860   -1.1700 hn        1 MOL      0.265752
     16 H5          6.8370   -0.2210   -0.8850 h1        1 MOL      0.028647
     17 H6          6.7060   -0.2630   -3.2190 hc        1 MOL      0.053261
     18 H7          7.9790   -1.4700   -3.3090 hc        1 MOL      0.053261
     19 N2          6.7620   -2.7030    0.1380 n         1 MOL     -0.281892
     20 C7          5.9680   -3.9050    0.5320 c3        1 MOL      0.182375
     21 C8          4.4950   -3.9120    0.0270 c         1 MOL      0.299699
     22 O5          4.1710   -4.9300   -0.5910 o         1 MOL     -0.510284
     23 C9          6.1320   -4.2450    2.0630 c3        1 MOL     -0.042130
     24 C10         7.5710   -4.0310    2.6940 c3        1 MOL     -0.025823
     25 C11         8.8120   -4.6290    2.0090 c3        1 MOL     -0.017250
     26 C12        10.1180   -3.8790    2.4380 c3        1 MOL      0.117479
     27 N3         10.3530   -4.0250    3.9010 n4        1 MOL     -0.298053
     28 H8          6.9190   -1.9800    0.8360 hn        1 MOL      0.144415
     29 H9          6.4010   -4.7820    0.0460 h1        1 MOL      0.039201
     30 H10         5.8540   -5.2750    2.2620 hc        1 MOL      0.034230
     31 H11         5.4220   -3.6160    2.5980 hc        1 MOL      0.034230
     32 H12         7.5130   -4.2660    3.7600 hc        1 MOL     -0.015092
     33 H13         7.9140   -3.0070    2.5590 hc        1 MOL     -0.015092
     34 H14         8.6120   -4.6030    0.9410 hc        1 MOL      0.031565
     35 H15         8.9380   -5.6610    2.3390 hc        1 MOL      0.031565
     36 H16        10.0800   -2.8380    2.1410 hx        1 MOL      0.032778
     37 H17        10.9410   -4.3810    1.9270 hx        1 MOL      0.032778
     38 H18         9.5290   -3.6310    4.3380 hn        1 MOL      0.287256
     39 H19        10.4310   -5.0150    4.1010 hn        1 MOL      0.287256
     40 H20        11.1550   -3.5060    4.2170 hn        1 MOL      0.287256
     41 N4          3.6760   -2.9020    0.1010 n         1 MOL     -0.162728
     42 C13         3.7590   -1.6630    0.8300 c3        1 MOL      0.003070
     43 C14         3.8610   -0.4170   -0.0390 c         1 MOL      0.255215
     44 O6          3.9070   -0.5310   -1.2800 o         1 MOL     -0.476546
     45 C15         2.5940   -1.5510    1.8410 c3        1 MOL     -0.296174
     46 C16         1.1420   -1.7570    1.3000 c         1 MOL      0.777451
     47 O7          0.8370   -1.0490    0.3420 o         1 MOL     -0.688586
     48 O8          0.4190   -2.5860    1.8570 o         1 MOL     -0.688586
     49 H21         2.8020   -3.1150   -0.3640 hn        1 MOL      0.291458
     50 H22         4.6210   -1.6320    1.4990 h1        1 MOL      0.127928
     51 H23         2.5130   -0.5470    2.2730 hc        1 MOL      0.033590
     52 H24         2.8410   -2.2770    2.6140 hc        1 MOL      0.033590
     53 N5          4.0440    0.7570    0.4650 n         1 MOL     -0.251132
     54 C17         4.1520    2.0720   -0.2610 c3        1 MOL     -0.001900
     55 C18         2.7950    2.5410   -0.8110 c         1 MOL      0.446248
     56 O9          1.7200    2.0110   -0.4730 o         1 MOL     -0.546332
     57 H25         4.1590    0.7810    1.4760 hn        1 MOL      0.248385
     58 H26         4.7540    2.0250   -1.1650 h1        1 MOL      0.072859
     59 H27         4.5370    2.9350    0.2780 h1        1 MOL      0.072859
     60 N6          2.8470    3.5500   -1.6180 n         1 MOL     -0.246408
     61 C19         1.8470    4.5210   -1.9850 c3        1 MOL      0.141140
     62 C20         2.4760    5.9050   -2.0020 c         1 MOL      0.349443
     63 O10         3.7040    6.0680   -2.1150 o         1 MOL     -0.502855
     64 C21         1.2930    4.3180   -3.3750 c3        1 MOL     -0.182977
     65 C22         0.8480    2.8560   -3.7160 c         1 MOL      0.560366
     66 O11        -0.0370    2.3120   -3.0520 o         1 MOL     -0.640897
     67 O12         1.5360    2.1760   -4.5690 o         1 MOL     -0.640897
     68 H28         3.7780    3.8520   -1.8560 hn        1 MOL      0.243886
     69 H29         1.0760    4.5080   -1.2170 h1        1 MOL      0.148328
     70 H30         2.0220    4.4880   -4.1720 hc        1 MOL      0.055544
     71 H31         0.4470    4.9670   -3.5970 hc        1 MOL      0.055544
     72 N7          1.7330    7.0070   -1.9390 n         1 MOL     -0.345684
     73 C23         0.2730    7.1160   -1.7680 c3        1 MOL     -0.214203
     74 C24        -0.3490    6.4460   -0.5430 c         1 MOL      0.598037
     75 O13         0.2410    6.3670    0.5240 o         1 MOL     -0.503495
     76 H32         2.3490    7.8050   -1.8310 hn        1 MOL      0.308218
     77 H33        -0.2190    6.7680   -2.6800 h1        1 MOL      0.114739
     78 H34         0.0010    8.1650   -1.6560 h1        1 MOL      0.114739
     79 N8         -1.5380    5.9420   -0.7510 n         1 MOL     -0.538328
     80 C25        -2.2890    5.1260    0.2200 c3        1 MOL     -0.033564
     81 C26        -1.6220    3.8820    0.7520 c         1 MOL      1.237220
     82 O14        -1.1770    3.0200   -0.0690 o         1 MOL     -1.037246
     83 C27        -3.6640    4.7290   -0.3790 c3        1 MOL      0.418975
     84 C28        -4.4810    4.0350    0.6890 c3        1 MOL     -0.404883
     85 O15        -3.8200    3.9670   -1.5230 oh        1 MOL     -0.625826
     86 H35        -1.9280    6.0770   -1.6780 hn        1 MOL      0.281548
     87 H36        -2.4610    5.7690    1.0870 h1        1 MOL      0.023459
     88 H37        -4.1800    5.6690   -0.5320 h1        1 MOL     -0.033299
     89 H38        -3.7530    4.5400   -2.2900 ho        1 MOL      0.421819
     90 H39        -5.5160    4.2480    0.4120 hc        1 MOL      0.103941
     91 H40        -4.4100    2.9590    0.4890 hc        1 MOL      0.103941
     92 H41        -4.3240    4.4470    1.6780 hc        1 MOL      0.103941
     93 N9         -1.5130    3.7400    2.1030 n         1 MOL     -0.804798
     94 C29        -0.8070    2.7390    2.8720 c3        1 MOL     -0.006052
     95 C30        -1.2790    1.3140    2.6530 c         1 MOL      0.651888
     96 O16        -1.0340    0.8110    1.5670 o         1 MOL     -0.476515
     97 C31         0.7150    2.9780    2.9110 c3        1 MOL      0.079316
     98 C32         1.2410    4.4030    3.2470 c3        1 MOL     -0.102369
     99 C33         1.4360    1.9980    3.8060 c3        1 MOL     -0.471669
    100 C34         2.6290    4.7380    2.7020 c3        1 MOL      0.032759
    101 H42        -1.8200    4.5060    2.6850 hn        1 MOL      0.362266
    102 H43        -1.1320    2.9120    3.9040 h1        1 MOL      0.040173
    103 H44         0.8570    2.7120    1.8670 hc        1 MOL      0.106152
    104 H45         1.2890    4.6190    4.3130 hc        1 MOL      0.026289
    105 H46         0.5880    5.1090    2.7320 hc        1 MOL      0.026289
    106 H47         2.5000    1.9560    3.6110 hc        1 MOL      0.129074
    107 H48         1.3610    2.3210    4.8440 hc        1 MOL      0.129074
    108 H49         0.9470    1.0210    3.8370 hc        1 MOL      0.129074
    109 H50         3.0020    5.7400    2.9110 hc        1 MOL      0.000687
    110 H51         3.3420    4.0680    3.1650 hc        1 MOL      0.000687
    111 H52         2.6960    4.6370    1.6170 hc        1 MOL      0.000687
    112 N10        -2.1320    0.7230    3.5640 n         1 MOL     -0.518863
    113 C35        -2.7170   -0.6460    3.4030 c3        1 MOL     -0.015045
    114 C36        -4.0370   -0.6580    2.7440 c         1 MOL      0.652146
    115 O17        -4.3840   -1.7330    2.2510 o         1 MOL     -0.562408
    116 C37        -2.7670   -1.4820    4.7450 c3        1 MOL      0.327295
    117 C38        -3.7390   -1.0340    5.7640 c3        1 MOL     -0.170487
    118 O18        -1.5670   -1.3170    5.4960 oh        1 MOL     -0.600794
    119 H53        -2.1830    1.2110    4.4450 hn        1 MOL      0.285988
    120 H54        -2.1000   -1.1730    2.6780 h1        1 MOL      0.053030
    121 H55        -2.9630   -2.5380    4.5460 h1        1 MOL      0.033790
    122 H56        -0.9180   -1.7500    4.9470 ho        1 MOL      0.385467
    123 H57        -4.7230   -1.1620    5.3260 hc        1 MOL      0.045374
    124 H58        -3.7510   -1.6010    6.6990 hc        1 MOL      0.045374
    125 H59        -3.7210    0.0290    5.9950 hc        1 MOL      0.045374
    126 N11        -4.8070    0.4350    2.7240 n         1 MOL     -0.363174
    127 C39        -6.1800    0.3190    2.1350 c3        1 MOL     -0.490837
    128 C40        -6.2020   -0.0510    0.6210 c         1 MOL      0.711202
    129 O19        -5.6070    0.6770   -0.1300 o         1 MOL     -0.472327
    130 C41        -6.9030    1.6660    2.3920 c3        1 MOL      0.655519
    131 C42        -8.4040    1.6240    2.0380 c3        1 MOL     -0.672925
    132 O20        -6.8510    2.0360    3.7570 oh        1 MOL     -0.609527
    133 H60        -4.3950    1.3010    3.0470 hn        1 MOL      0.213909
    134 H61        -6.7100   -0.3410    2.8160 h1        1 MOL      0.163861
    135 H62        -6.4680    2.4880    1.8250 h1        1 MOL     -0.078378
    136 H63        -5.8940    2.0500    3.8890 ho        1 MOL      0.354786
    137 H64        -8.3600    1.5500    0.9510 hc        1 MOL      0.186429
    138 H65        -8.8960    0.8570    2.6380 hc        1 MOL      0.186429
    139 H66        -8.7310    2.6420    2.2750 hc        1 MOL      0.186429
    140 N12        -6.9280   -1.1060    0.2260 n         1 MOL     -0.415027
    141 C43        -6.9930   -1.6770   -1.0870 c3        1 MOL     -0.050715
    142 C44        -5.6150   -1.9840   -1.6950 c         1 MOL      0.805315
    143 O21        -5.0420   -1.1110   -2.4750 o         1 MOL     -0.627837
    144 C45        -7.9500   -0.9070   -2.0260 c3        1 MOL     -0.845531
    145 C46        -9.4750   -1.0400   -1.6160 c3        1 MOL      0.137137
    146 C47        -9.9890   -2.4290   -1.1340 c3        1 MOL     -0.180554
    147 C48       -11.4850   -2.3740   -0.7980 c3        1 MOL     -0.037153
    148 N13       -11.9200   -3.7000   -0.2750 n4        1 MOL     -0.135507
    149 H67        -7.3990   -1.5720    0.9820 hn        1 MOL      0.257437
    150 H68        -7.3080   -2.7050   -0.8670 h1        1 MOL      0.064981
    151 H69        -7.9400   -1.2940   -3.0400 hc        1 MOL      0.309383
    152 H70        -7.7040    0.1590   -1.9740 hc        1 MOL      0.309383
    153 H71       -10.1710   -0.7990   -2.4240 hc        1 MOL      0.036001
    154 H72        -9.5990   -0.2460   -0.8830 hc        1 MOL      0.036001
    155 H73        -9.3630   -2.8850   -0.3630 hc        1 MOL      0.098598
    156 H74        -9.8340   -3.1800   -1.9070 hc        1 MOL      0.098598
    157 H75       -11.9370   -2.1450   -1.7630 hx        1 MOL      0.090113
    158 H76       -11.7440   -1.4990   -0.2120 hx        1 MOL      0.090113
    159 H77       -12.9180   -3.7090   -0.1600 hn        1 MOL      0.196516
    160 H78       -11.5270   -4.4050   -0.8760 hn        1 MOL      0.196516
    161 H79       -11.5500   -3.7820    0.6640 hn        1 MOL      0.196516
    162 N14        -4.9580   -3.0980   -1.3330 n         1 MOL     -0.670485
    163 C49        -3.5490   -3.3250   -1.6770 c3        1 MOL      0.376722
    164 C50        -2.5060   -2.8170   -0.6340 c         1 MOL      0.325440
    165 O22        -2.0080   -1.7510   -0.8040 o         1 MOL     -0.510120
    166 C51        -3.3150   -4.7800   -2.1450 c3        1 MOL     -0.010979
    167 C52        -4.0040   -5.0240   -3.5050 c3        1 MOL     -0.274736
    168 C53        -4.1850   -6.5260   -3.8110 c         1 MOL      0.678958
    169 O23        -3.3880   -6.9420   -4.6780 o         1 MOL     -0.648443
    170 O24        -4.9370   -7.2730   -3.1290 o         1 MOL     -0.648443
    171 H80        -5.3390   -3.5990   -0.5470 hn        1 MOL      0.333521
    172 H81        -3.2410   -2.7840   -2.5650 h1        1 MOL      0.020359
    173 H82        -3.7310   -5.5270   -1.4690 hc        1 MOL      0.052187
    174 H83        -2.2400   -4.9970   -2.1730 hc        1 MOL      0.052187
    175 H84        -3.3960   -4.5760   -4.2900 hc        1 MOL      0.053911
    176 H85        -4.9660   -4.5060   -3.5170 hc        1 MOL      0.053911
    177 N15        -2.0300   -3.5780    0.3960 n         1 MOL     -0.335097
    178 C54        -2.2820   -4.9100    0.9680 c3        1 MOL     -0.017101
    179 H86        -2.4030   -4.8250    2.0470 h1        1 MOL      0.029944
    180 H87        -3.1910   -5.3270    0.5330 h1        1 MOL      0.029944
    181 H88        -1.4400   -5.5650    0.7480 h1        1 MOL      0.029944
    182 H89        -1.3130   -3.1090    0.9380 hn        1 MOL      0.318640
    183 Ca1        -0.5340    0.6610   -1.1960 Ca        1 MOL      1.738595
    184 O25         1.4540   -0.1420   -2.6040 oh        1 MOL     -0.841020
    185 H90         1.5830    0.1400   -3.5180 ho        1 MOL      0.417279
    186 H91         2.3290   -0.1130   -2.2210 ho        1 MOL      0.417279
    187 O26        -2.9710    1.2530   -1.4660 oh        1 MOL     -0.841020
    188 H92        -3.8750    0.9830   -1.2880 ho        1 MOL      0.417279
    189 H93        -2.9850    2.2060   -1.3620 ho        1 MOL      0.417279
    190 O27        -1.3690   -0.5580   -3.5430 oh        1 MOL     -0.841020
    191 H94        -1.3210   -0.0820   -4.3620 ho        1 MOL      0.417279
    192 H95        -2.2990   -0.6550   -3.3640 ho        1 MOL      0.417279
@<TRIPOS>BOND
     1    1    2 1   
     2    1    4 1   
     3    1    5 1   
     4    1    6 1   
     5    2    3 2   
     6    2    7 1   
     7    7    8 1   
     8    7   15 1   
     9    8    9 1   
    10    8   11 1   
    11    8   16 1   
    12    9   10 2   
    13    9   19 1   
    14   11   12 1   
    15   11   17 1   
    16   11   18 1   
    17   12   13 1   
    18   12   14 1   
    19   19   20 1   
    20   19   28 1   
    21   20   21 1   
    22   20   23 1   
    23   20   29 1   
    24   21   22 2   
    25   21   41 1   
    26   23   24 1   
    27   23   30 1   
    28   23   31 1   
    29   24   25 1   
    30   24   32 1   
    31   24   33 1   
    32   25   26 1   
    33   25   34 1   
    34   25   35 1   
    35   26   27 1   
    36   26   36 1   
    37   26   37 1   
    38   27   38 1   
    39   27   39 1   
    40   27   40 1   
    41   41   42 1   
    42   41   49 1   
    43   42   43 1   
    44   42   45 1   
    45   42   50 1   
    46   43   44 2   
    47   43   53 1   
    48   45   46 1   
    49   45   51 1   
    50   45   52 1   
    51   46   47 1   
    52   46   48 1   
    53   53   54 1   
    54   53   57 1   
    55   54   55 1   
    56   54   58 1   
    57   54   59 1   
    58   55   56 2   
    59   55   60 1   
    60   60   61 1   
    61   60   68 1   
    62   61   62 1   
    63   61   64 1   
    64   61   69 1   
    65   62   63 2   
    66   62   72 1   
    67   64   65 1   
    68   64   70 1   
    69   64   71 1   
    70   65   66 1   
    71   65   67 1   
    72   72   73 1   
    73   72   76 1   
    74   73   74 1   
    75   73   77 1   
    76   73   78 1   
    77   74   75 2   
    78   74   79 1   
    79   79   80 1   
    80   79   86 1   
    81   80   81 1   
    82   80   83 1   
    83   80   87 1   
    84   81   82 2   
    85   81   93 1   
    86   83   84 1   
    87   83   85 1   
    88   83   88 1   
    89   84   90 1   
    90   84   91 1   
    91   84   92 1   
    92   85   89 1   
    93   93   94 1   
    94   93  101 1   
    95   94   95 1   
    96   94   97 1   
    97   94  102 1   
    98   95   96 2   
    99   95  112 1   
   100   97   98 1   
   101   97   99 1   
   102   97  103 1   
   103   98  100 1   
   104   98  104 1   
   105   98  105 1   
   106   99  106 1   
   107   99  107 1   
   108   99  108 1   
   109  100  109 1   
   110  100  110 1   
   111  100  111 1   
   112  112  113 1   
   113  112  119 1   
   114  113  114 1   
   115  113  116 1   
   116  113  120 1   
   117  114  115 2   
   118  114  126 1   
   119  116  117 1   
   120  116  118 1   
   121  116  121 1   
   122  117  123 1   
   123  117  124 1   
   124  117  125 1   
   125  118  122 1   
   126  126  127 1   
   127  126  133 1   
   128  127  128 1   
   129  127  130 1   
   130  127  134 1   
   131  128  129 2   
   132  128  140 1   
   133  130  131 1   
   134  130  132 1   
   135  130  135 1   
   136  131  137 1   
   137  131  138 1   
   138  131  139 1   
   139  132  136 1   
   140  140  141 1   
   141  140  149 1   
   142  141  142 1   
   143  141  144 1   
   144  141  150 1   
   145  142  143 2   
   146  142  162 1   
   147  144  145 1   
   148  144  151 1   
   149  144  152 1   
   150  145  146 1   
   151  145  153 1   
   152  145  154 1   
   153  146  147 1   
   154  146  155 1   
   155  146  156 1   
   156  147  148 1   
   157  147  157 1   
   158  147  158 1   
   159  148  159 1   
   160  148  160 1   
   161  148  161 1   
   162  162  163 1   
   163  162  171 1   
   164  163  164 1   
   165  163  166 1   
   166  163  172 1   
   167  164  165 2   
   168  164  177 1   
   169  166  167 1   
   170  166  173 1   
   171  166  174 1   
   172  167  168 1   
   173  167  175 1   
   174  167  176 1   
   175  168  169 1   
   176  168  170 1   
   177  177  178 1   
   178  177  182 1   
   179  178  179 1   
   180  178  180 1   
   181  178  181 1   
   182  184  185 1   
   183  184  186 1   
   184  187  188 1   
   185  187  189 1   
   186  190  191 1   
   187  190  192 1   
@<TRIPOS>SUBSTRUCTURE
     1 MOL         1 TEMP              0 ****  ****    0 ROOT
