@<TRIPOS>MOLECULE
MOL
  181   177     1     0     0
SMALL
resp


@<TRIPOS>ATOM
      1 C1         -5.9320   -5.2590   -4.5220 c3        1 MOL     -0.396942
      2 C2         -5.5940   -4.0030   -3.7100 c         1 MOL      0.732811
      3 O1         -4.6980   -3.3200   -4.0460 o         1 MOL     -0.565479
      4 H1         -5.3060   -5.2940   -5.4140 hc        1 MOL      0.084734
      5 H2         -5.7480   -6.1460   -3.9160 hc        1 MOL      0.084734
      6 H3         -6.9820   -5.2310   -4.8160 hc        1 MOL      0.084734
      7 N1         -6.2170   -3.8050   -2.5730 n         1 MOL     -0.333136
      8 C3         -7.3320   -4.5370   -1.9350 c3        1 MOL     -0.165632
      9 C4         -7.1400   -4.6840   -0.4220 c         1 MOL      0.562909
     10 O2         -5.9610   -4.7100   -0.0520 o         1 MOL     -0.469754
     11 C5         -8.6100   -3.7180   -2.2040 c3        1 MOL     -0.033966
     12 C6         -8.5640   -2.1970   -1.6890 c         1 MOL      0.414987
     13 O3         -8.1790   -1.3260   -2.4680 o         1 MOL     -0.609083
     14 O4         -8.8070   -1.9700   -0.4780 o         1 MOL     -0.609083
     15 H4         -5.9020   -2.9780   -2.0890 hn        1 MOL      0.240179
     16 H5         -7.3740   -5.5360   -2.3650 h1        1 MOL      0.100768
     17 H6         -9.4270   -4.1650   -1.6480 hc        1 MOL     -0.006035
     18 H7         -8.7730   -3.7650   -3.2770 hc        1 MOL     -0.006035
     19 N2         -8.1460   -4.8510    0.3860 n         1 MOL     -0.494941
     20 C7         -8.0030   -4.9990    1.8230 c3        1 MOL      0.336274
     21 C8         -7.2140   -3.7740    2.3640 c         1 MOL      0.312002
     22 O5         -6.6780   -3.8910    3.4830 o         1 MOL     -0.513812
     23 C9         -7.4710   -6.3900    2.1750 c3        1 MOL     -0.522336
     24 H8         -9.0750   -4.9660    0.0150 hn        1 MOL      0.303955
     25 H9         -8.9920   -4.9500    2.2710 h1        1 MOL      0.010890
     26 H10        -7.8580   -6.7650    3.1210 hc        1 MOL      0.142805
     27 H11        -7.6630   -7.1180    1.3880 hc        1 MOL      0.142805
     28 H12        -6.3990   -6.1820    2.2780 hc        1 MOL      0.142805
     29 N3         -7.1400   -2.5350    1.7370 n         1 MOL     -0.137932
     30 C10        -6.1540   -1.5020    2.0590 c3        1 MOL      0.038485
     31 C11        -6.7750   -0.0940    2.2690 c         1 MOL      0.445115
     32 O6         -7.8360    0.1420    1.7260 o         1 MOL     -0.532555
     33 C12        -4.9560   -1.5590    1.0630 c3        1 MOL      0.009275
     34 C13        -5.2720   -1.2380   -0.3370 c         1 MOL      0.527269
     35 O7         -4.3780   -1.5380   -1.1910 o         1 MOL     -0.596278
     36 O8         -6.2820   -0.4710   -0.5730 o         1 MOL     -0.596278
     37 H13        -7.6660   -2.3610    0.8960 hn        1 MOL      0.035248
     38 H14        -5.8510   -1.7580    3.0750 h1        1 MOL      0.017889
     39 H15        -4.4540   -2.5190    1.1370 hc        1 MOL      0.035498
     40 H16        -4.2250   -0.8260    1.4110 hc        1 MOL      0.035498
     41 N4         -6.1360    0.7750    3.0620 n         1 MOL     -0.351845
     42 C14        -6.4290    2.2390    2.9840 c3        1 MOL     -0.249665
     43 C15        -6.2330    2.8990    1.6120 c         1 MOL      0.671483
     44 O9         -7.0320    2.5950    0.7510 o         1 MOL     -0.580116
     45 H17        -5.2640    0.5300    3.4910 hn        1 MOL      0.299424
     46 H18        -5.7760    2.6730    3.7490 h1        1 MOL      0.109680
     47 H19        -7.4140    2.5140    3.3440 h1        1 MOL      0.109680
     48 N5         -5.2800    3.7570    1.4510 n         1 MOL     -0.602430
     49 C16        -4.8660    4.4220    0.2580 c3        1 MOL      0.269260
     50 C17        -3.3970    4.1530   -0.0980 c         1 MOL      0.519238
     51 O10        -3.0530    4.0910   -1.2980 o         1 MOL     -0.526328
     52 C18        -5.1170    5.9440    0.3320 c3        1 MOL     -0.321831
     53 C19        -6.5590    6.2530    0.6130 c         1 MOL      0.800175
     54 N6         -6.9490    6.7730    1.7360 n         1 MOL     -0.812608
     55 O11        -7.3600    5.9680   -0.2540 o         1 MOL     -0.613728
     56 H20        -4.7830    3.8070    2.3300 hn        1 MOL      0.294942
     57 H21        -5.4800    4.0930   -0.5830 h1        1 MOL      0.074895
     58 H22        -4.7550    6.4400   -0.5620 hc        1 MOL      0.055750
     59 H23        -4.5620    6.3450    1.1880 hc        1 MOL      0.055750
     60 H24        -6.2310    7.0130    2.4120 hn        1 MOL      0.374192
     61 H25        -7.9060    7.0820    1.8200 hn        1 MOL      0.374192
     62 N7         -2.5610    3.9850    0.8960 n         1 MOL     -0.340486
     63 C20        -1.1030    3.9520    0.6370 c3        1 MOL     -0.198684
     64 C21        -0.1780    3.4660    1.7560 c         1 MOL      0.659777
     65 O12        -0.6860    2.9210    2.7440 o         1 MOL     -0.564843
     66 H26        -2.8520    3.9700    1.8600 hn        1 MOL      0.253119
     67 H27        -0.7430    4.9660    0.4540 h1        1 MOL      0.152917
     68 H28        -0.7990    3.3750   -0.2270 h1        1 MOL      0.152917
     69 N8          1.1910    3.7140    1.8090 n         1 MOL     -0.583352
     70 C22         2.0180    4.5230    0.8850 c3        1 MOL     -0.101378
     71 C23         2.4010    3.7540   -0.3960 c         1 MOL      0.443557
     72 O13         1.8480    4.0010   -1.4440 o         1 MOL     -0.486914
     73 C24         3.2680    5.0210    1.6290 c3        1 MOL      0.429889
     74 C25         4.1350    5.9800    0.7830 c3        1 MOL     -0.501508
     75 O14         2.7960    5.7840    2.8010 oh        1 MOL     -0.624135
     76 H29         1.4990    3.5050    2.7460 hn        1 MOL      0.319710
     77 H30         1.4520    5.4410    0.7170 h1        1 MOL      0.150542
     78 H31         3.8920    4.1890    1.9300 h1        1 MOL      0.001296
     79 H32         3.3840    5.6130    3.5390 ho        1 MOL      0.373614
     80 H33         4.9390    6.4360    1.3470 hc        1 MOL      0.143544
     81 H34         4.5970    5.4260   -0.0390 hc        1 MOL      0.143544
     82 H35         3.5100    6.6840    0.2400 hc        1 MOL      0.143544
     83 N9          3.3800    2.7650   -0.3280 n         1 MOL     -0.488969
     84 C26         4.1840    2.1500   -1.4070 c3        1 MOL      0.138684
     85 C27         4.8860    3.3090   -2.2360 c         1 MOL      0.670052
     86 O15         4.4230    3.7170   -3.2500 o         1 MOL     -0.567237
     87 C28         3.3450    1.1180   -2.2610 c3        1 MOL      0.110877
     88 C29         2.1990    0.3760   -1.4630 c3        1 MOL      0.088946
     89 C30         4.2420    0.1380   -3.0170 c3        1 MOL     -0.269179
     90 C31         1.3200   -0.5810   -2.2710 c3        1 MOL     -0.236515
     91 H36         3.6340    2.4950    0.6050 hn        1 MOL      0.279117
     92 H37         4.9750    1.5840   -0.9240 h1        1 MOL      0.021727
     93 H38         2.7830    1.7290   -2.9690 hc        1 MOL      0.007689
     94 H39         1.5270    1.1210   -1.0260 hc        1 MOL      0.010431
     95 H40         2.6780   -0.2250   -0.6980 hc        1 MOL      0.010431
     96 H41         3.7070   -0.4310   -3.7820 hc        1 MOL      0.054914
     97 H42         5.1090    0.5820   -3.5050 hc        1 MOL      0.054914
     98 H43         4.5760   -0.6610   -2.3410 hc        1 MOL      0.054914
     99 H44         0.5790   -1.0100   -1.6010 hc        1 MOL      0.064370
    100 H45         0.8800    0.0250   -3.0660 hc        1 MOL      0.064370
    101 H46         1.9040   -1.4410   -2.6090 hc        1 MOL      0.064370
    102 N10         6.0860    3.7560   -1.9230 n         1 MOL     -0.612397
    103 C32         6.8760    3.3780   -0.7530 c3        1 MOL      0.160932
    104 C33         7.5500    2.0280   -0.9370 c         1 MOL      0.659502
    105 O16         7.7550    1.5330   -2.0470 o         1 MOL     -0.541285
    106 C34         7.9180    4.4520   -0.4850 c3        1 MOL     -0.150997
    107 C35         8.9960    4.6340   -1.5480 c         1 MOL      0.752904
    108 O17         8.7310    4.9300   -2.7360 o         1 MOL     -0.717913
    109 O18        10.1730    4.5370   -1.1650 o         1 MOL     -0.717913
    110 H47         6.5110    4.3690   -2.5990 hn        1 MOL      0.319525
    111 H48         6.2800    3.3050    0.1520 h1        1 MOL     -0.052175
    112 H49         8.4700    4.1490    0.4030 hc        1 MOL     -0.009259
    113 H50         7.3390    5.3580   -0.2900 hc        1 MOL     -0.009259
    114 N11         8.0920    1.4590    0.1370 n         1 MOL     -0.684265
    115 C36         8.6180    0.0710    0.1700 c3        1 MOL      0.378423
    116 C37         8.6320   -0.4950    1.5850 c         1 MOL      0.243169
    117 O19         9.2850    0.1670    2.4510 o         1 MOL     -0.522642
    118 C38         9.9770    0.0670   -0.5180 c3        1 MOL     -0.096794
    119 C39        10.4800   -1.3560   -0.7920 ca        1 MOL      0.017243
    120 C40        11.6350   -1.8690   -0.1590 ca        1 MOL     -0.117155
    121 C41         9.8030   -2.1530   -1.7290 ca        1 MOL     -0.117155
    122 C42        12.0460   -3.2020   -0.4170 ca        1 MOL     -0.103969
    123 C43        10.2220   -3.4710   -1.9490 ca        1 MOL     -0.103969
    124 C44        11.4040   -3.9460   -1.3710 ca        1 MOL     -0.154442
    125 H51         7.9810    2.0340    0.9600 hn        1 MOL      0.343619
    126 H52         7.9530   -0.4360   -0.5280 h1        1 MOL     -0.006362
    127 H53        10.7050    0.5540    0.1270 hc        1 MOL      0.071448
    128 H54         9.9670    0.6350   -1.4460 hc        1 MOL      0.071448
    129 H55        12.1590   -1.2890    0.5800 ha        1 MOL      0.116205
    130 H56         8.9810   -1.8050   -2.3400 ha        1 MOL      0.116205
    131 H57        12.9050   -3.5160    0.1520 ha        1 MOL      0.089550
    132 H58         9.5830   -4.1110   -2.5470 ha        1 MOL      0.089550
    133 H59        11.7040   -4.9750   -1.4540 ha        1 MOL      0.099823
    134 N12         8.3110   -1.7560    1.9620 n         1 MOL      0.103570
    135 C45         7.7470   -2.8030    1.0330 c3        1 MOL     -0.011394
    136 C46         6.2290   -2.6540    0.8240 c         1 MOL      0.462176
    137 O20         5.7640   -1.5110    0.8050 o         1 MOL     -0.570219
    138 C47         8.1970   -4.1360    1.6990 c3        1 MOL     -0.305098
    139 C48         8.1430   -3.7590    3.2080 c3        1 MOL      0.242215
    140 C49         8.6390   -2.3210    3.2140 c3        1 MOL     -0.147595
    141 H60         8.1930   -2.7340    0.0480 h1        1 MOL      0.038416
    142 H61         7.5040   -4.9340    1.4290 hc        1 MOL      0.071806
    143 H62         9.2310   -4.3140    1.4140 hc        1 MOL      0.071806
    144 H63         7.1320   -3.8470    3.6070 hc        1 MOL     -0.031356
    145 H64         8.8320   -4.4050    3.7450 hc        1 MOL     -0.031356
    146 H65         8.2750   -1.7440    4.0650 h1        1 MOL      0.054614
    147 H66         9.7240   -2.3730    3.2380 h1        1 MOL      0.054614
    148 N13         5.5260   -3.6990    0.4910 n         1 MOL     -0.239027
    149 C50         4.1140   -3.7350    0.0870 c3        1 MOL     -0.127504
    150 C51         3.7090   -4.7540   -0.9710 c         1 MOL      0.415854
    151 O21         2.5030   -5.0820   -1.1560 o         1 MOL     -0.520527
    152 C52         3.2980   -4.0110    1.3670 c3        1 MOL     -0.288698
    153 C53         3.6680   -3.1360    2.6310 c3        1 MOL     -0.195349
    154 C54         2.7440   -3.4310    3.7740 c         1 MOL      0.695741
    155 O22         3.2100   -3.9440    4.7930 o         1 MOL     -0.709277
    156 O23         1.4890   -3.2070    3.6280 o         1 MOL     -0.709277
    157 H67         5.9100   -4.6140    0.6690 hn        1 MOL      0.245582
    158 H68         3.8030   -2.7420   -0.2320 h1        1 MOL      0.238742
    159 H69         3.3170   -5.0760    1.5780 hc        1 MOL      0.136010
    160 H70         2.2670   -3.7250    1.1690 hc        1 MOL      0.136010
    161 H71         3.6800   -2.0770    2.3610 hc        1 MOL      0.051949
    162 H72         4.6970   -3.4100    2.8350 hc        1 MOL      0.051949
    163 N14         4.6410   -5.3750   -1.6580 n         1 MOL     -0.379960
    164 C55         5.9940   -5.0180   -2.1960 c3        1 MOL      0.093264
    165 H73         5.9170   -4.8150   -3.2640 h1        1 MOL      0.020993
    166 H74         6.3660   -4.1300   -1.6840 h1        1 MOL      0.020993
    167 H75         6.6820   -5.8470   -2.0320 h1        1 MOL      0.020993
    168 H76         4.2120   -6.0820   -2.2430 hn        1 MOL      0.263166
    169 Ca1        -8.5120    0.7900   -0.8340 Ca        1 MOL      1.754797
    170 O24       -10.7420    0.6700    0.7070 oh        1 MOL     -0.836970
    171 H77       -11.6010    1.0810    0.8040 ho        1 MOL      0.406823
    172 H78       -10.8330   -0.1760    1.1540 ho        1 MOL      0.406823
    173 O25       -10.4770    0.8620   -2.5880 oh        1 MOL     -0.836970
    174 H79       -10.4200    0.3220   -3.3830 ho        1 MOL      0.406823
    175 H80       -11.4050    1.0260   -2.4730 ho        1 MOL      0.406823
    176 O26        -9.1170    3.5440   -0.8670 oh        1 MOL     -0.836970
    177 H81        -9.6570    3.8990   -1.5820 ho        1 MOL      0.406823
    178 H82        -8.7650    4.3180   -0.4270 ho        1 MOL      0.406823
    179 O27        -7.2750    2.0330   -2.7230 oh        1 MOL     -0.836970
    180 H83        -6.3490    2.2850   -2.7490 ho        1 MOL      0.406823
    181 H84        -7.6860    2.5610   -3.4160 ho        1 MOL      0.406823
@<TRIPOS>BOND
     1    1    2 1   
     2    1    4 1   
     3    1    5 1   
     4    1    6 1   
     5    2    3 2   
     6    2    7 1   
     7    7    8 1   
     8    7   15 1   
     9    8    9 1   
    10    8   11 1   
    11    8   16 1   
    12    9   10 2   
    13    9   19 1   
    14   11   12 1   
    15   11   17 1   
    16   11   18 1   
    17   12   13 1   
    18   12   14 1   
    19   19   20 1   
    20   19   24 1   
    21   20   21 1   
    22   20   23 1   
    23   20   25 1   
    24   21   22 2   
    25   21   29 1   
    26   23   26 1   
    27   23   27 1   
    28   23   28 1   
    29   29   30 1   
    30   29   37 1   
    31   30   31 1   
    32   30   33 1   
    33   30   38 1   
    34   31   32 2   
    35   31   41 1   
    36   33   34 1   
    37   33   39 1   
    38   33   40 1   
    39   34   35 1   
    40   34   36 1   
    41   41   42 1   
    42   41   45 1   
    43   42   43 1   
    44   42   46 1   
    45   42   47 1   
    46   43   44 2   
    47   43   48 1   
    48   48   49 1   
    49   48   56 1   
    50   49   50 1   
    51   49   52 1   
    52   49   57 1   
    53   50   51 2   
    54   50   62 1   
    55   52   53 1   
    56   52   58 1   
    57   52   59 1   
    58   53   54 1   
    59   53   55 2   
    60   54   60 1   
    61   54   61 1   
    62   62   63 1   
    63   62   66 1   
    64   63   64 1   
    65   63   67 1   
    66   63   68 1   
    67   64   65 2   
    68   64   69 1   
    69   69   70 1   
    70   69   76 1   
    71   70   71 1   
    72   70   73 1   
    73   70   77 1   
    74   71   72 2   
    75   71   83 1   
    76   73   74 1   
    77   73   75 1   
    78   73   78 1   
    79   74   80 1   
    80   74   81 1   
    81   74   82 1   
    82   75   79 1   
    83   83   84 1   
    84   83   91 1   
    85   84   85 1   
    86   84   87 1   
    87   84   92 1   
    88   85   86 2   
    89   85  102 1   
    90   87   88 1   
    91   87   89 1   
    92   87   93 1   
    93   88   90 1   
    94   88   94 1   
    95   88   95 1   
    96   89   96 1   
    97   89   97 1   
    98   89   98 1   
    99   90   99 1   
   100   90  100 1   
   101   90  101 1   
   102  102  103 1   
   103  102  110 1   
   104  103  104 1   
   105  103  106 1   
   106  103  111 1   
   107  104  105 2   
   108  104  114 1   
   109  106  107 1   
   110  106  112 1   
   111  106  113 1   
   112  107  108 1   
   113  107  109 1   
   114  114  115 1   
   115  114  125 1   
   116  115  116 1   
   117  115  118 1   
   118  115  126 1   
   119  116  117 2   
   120  116  134 1   
   121  118  119 1   
   122  118  127 1   
   123  118  128 1   
   124  119  120 ar  
   125  119  121 ar  
   126  120  122 ar  
   127  120  129 1   
   128  121  123 ar  
   129  121  130 1   
   130  122  124 ar  
   131  122  131 1   
   132  123  124 ar  
   133  123  132 1   
   134  124  133 1   
   135  134  135 1   
   136  134  140 1   
   137  135  136 1   
   138  135  138 1   
   139  135  141 1   
   140  136  137 2   
   141  136  148 1   
   142  138  139 1   
   143  138  142 1   
   144  138  143 1   
   145  139  140 1   
   146  139  144 1   
   147  139  145 1   
   148  140  146 1   
   149  140  147 1   
   150  148  149 1   
   151  148  157 1   
   152  149  150 1   
   153  149  152 1   
   154  149  158 1   
   155  150  151 2   
   156  150  163 1   
   157  152  153 1   
   158  152  159 1   
   159  152  160 1   
   160  153  154 1   
   161  153  161 1   
   162  153  162 1   
   163  154  155 1   
   164  154  156 1   
   165  163  164 1   
   166  163  168 1   
   167  164  165 1   
   168  164  166 1   
   169  164  167 1   
   170  170  171 1   
   171  170  172 1   
   172  173  174 1   
   173  173  175 1   
   174  176  177 1   
   175  176  178 1   
   176  179  180 1   
   177  179  181 1   
@<TRIPOS>SUBSTRUCTURE
     1 MOL         1 TEMP              0 ****  ****    0 ROOT
