@<TRIPOS>MOLECULE
MOL
  188   182     1     0     0
SMALL
resp


@<TRIPOS>ATOM
      1 C1          3.2750    3.8580    1.8580 c3        1 MOL     -0.429791
      2 C2          4.4240    3.1660    1.0650 c         1 MOL      0.840136
      3 O1          4.3960    2.0070    0.7350 o         1 MOL     -0.662809
      4 H1          2.6550    3.0990    2.3360 hc        1 MOL      0.102611
      5 H2          3.7010    4.5110    2.6200 hc        1 MOL      0.102611
      6 H3          2.6650    4.4480    1.1740 hc        1 MOL      0.102611
      7 N1          5.5060    3.9410    0.8440 n         1 MOL     -0.648819
      8 C3          6.7810    3.3510    0.2700 c3        1 MOL      0.005148
      9 C4          7.4340    2.1110    0.9830 c         1 MOL      0.403419
     10 O2          8.3860    1.5610    0.4710 o         1 MOL     -0.471255
     11 C5          6.6460    3.0370   -1.2670 c3        1 MOL     -0.153392
     12 C6          5.9860    4.1540   -2.0890 c         1 MOL      0.725313
     13 O3          6.0250    5.3220   -1.7610 o         1 MOL     -0.663294
     14 O4          5.4080    3.7980   -3.1390 o         1 MOL     -0.663294
     15 H4          5.5190    4.8580    1.2660 hn        1 MOL      0.327192
     16 H5          7.5520    4.1240    0.3230 h1        1 MOL      0.094249
     17 H6          6.2420    2.0400   -1.4300 hc        1 MOL      0.061731
     18 H7          7.7030    3.0300   -1.5240 hc        1 MOL      0.061731
     19 N2          6.9030    1.6680    2.1340 n         1 MOL     -0.426584
     20 C7          7.2560    0.5290    2.9500 c3        1 MOL      0.148066
     21 C8          6.7220   -0.7890    2.3630 c         1 MOL      0.512333
     22 O5          7.0140   -1.8430    3.0020 o         1 MOL     -0.584772
     23 C9          6.9500    0.6580    4.4770 c3        1 MOL     -0.307252
     24 C10         7.3340    1.9380    5.1710 c3        1 MOL      0.179965
     25 C11         8.8240    2.1730    5.0100 c3        1 MOL     -0.000611
     26 C12         9.1330    3.2510    6.0740 c3        1 MOL     -0.081185
     27 N3          9.1560    4.5810    5.5620 n4        1 MOL     -0.371302
     28 H8          6.2350    2.2890    2.5750 hn        1 MOL      0.266419
     29 H9          8.3440    0.5060    2.9130 h1        1 MOL      0.016683
     30 H10         7.4440   -0.1520    5.0160 hc        1 MOL      0.116502
     31 H11         5.8720    0.5410    4.4840 hc        1 MOL      0.116502
     32 H12         7.0660    1.8120    6.2240 hc        1 MOL     -0.050683
     33 H13         6.7760    2.7450    4.7070 hc        1 MOL     -0.050683
     34 H14         9.0400    2.5640    4.0190 hc        1 MOL      0.063370
     35 H15         9.3650    1.2390    5.1860 hc        1 MOL      0.063370
     36 H16        10.0930    2.9820    6.5110 hx        1 MOL      0.115434
     37 H17         8.4850    3.1370    6.9470 hx        1 MOL      0.115434
     38 H18         8.3590    4.7700    4.9680 hn        1 MOL      0.292271
     39 H19         9.0560    5.2330    6.3320 hn        1 MOL      0.292271
     40 H20        10.0010    4.8660    5.0850 hn        1 MOL      0.292271
     41 N4          5.9500   -0.7890    1.2840 n         1 MOL     -0.375245
     42 C13         5.0360   -1.9160    0.9880 c3        1 MOL      0.096050
     43 C14         5.3370   -2.3960   -0.3680 c         1 MOL      0.390518
     44 O6          5.7290   -1.5000   -1.1840 o         1 MOL     -0.447432
     45 C15         3.5890   -1.3620    0.9740 c3        1 MOL     -0.124722
     46 C16         2.5180   -2.3520    0.5270 c         1 MOL      0.712476
     47 O7          1.7360   -2.8590    1.3600 o         1 MOL     -0.739798
     48 O8          2.4530   -2.6960   -0.6400 o         1 MOL     -0.739798
     49 H21         5.7200    0.0550    0.7760 hn        1 MOL      0.338855
     50 H22         5.1270   -2.7870    1.6470 h1        1 MOL      0.029021
     51 H23         3.5820   -0.4460    0.3900 hc        1 MOL      0.042771
     52 H24         3.4590   -1.1300    2.0340 hc        1 MOL      0.042771
     53 N5          5.2970   -3.7200   -0.6340 n         1 MOL     -0.210985
     54 C17         5.6430   -4.4610   -1.7970 c3        1 MOL     -0.309743
     55 C18         5.1870   -3.8710   -3.1080 c         1 MOL      0.570789
     56 O9          5.8960   -3.8230   -4.1200 o         1 MOL     -0.547680
     57 H25         4.9510   -4.2110    0.1760 hn        1 MOL      0.236202
     58 H26         5.2170   -5.4400   -1.6030 h1        1 MOL      0.126220
     59 H27         6.7420   -4.4740   -1.7900 h1        1 MOL      0.126220
     60 N6          4.0700   -3.1810   -3.0840 n         1 MOL     -0.390738
     61 C19         3.5440   -2.4080   -4.2680 c3        1 MOL      0.107510
     62 C20         3.2130   -0.9430   -3.8890 c         1 MOL      0.452171
     63 O10         3.0880   -0.1020   -4.7910 o         1 MOL     -0.494880
     64 C21         2.2310   -3.1200   -4.8330 c3        1 MOL     -0.331557
     65 C22         1.8660   -2.5800   -6.2250 c         1 MOL      0.635379
     66 N7          0.8820   -1.7840   -6.4420 n         1 MOL     -0.780647
     67 O11         2.6080   -2.8380   -7.1740 o         1 MOL     -0.555008
     68 H28         3.6650   -3.0550   -2.1610 hn        1 MOL      0.246592
     69 H29         4.3130   -2.4150   -5.0380 h1        1 MOL      0.135654
     70 H30         1.4710   -3.0010   -4.0610 hc        1 MOL      0.084444
     71 H31         2.3030   -4.2040   -4.8830 hc        1 MOL      0.084444
     72 H32         0.2110   -1.6430   -5.6950 hn        1 MOL      0.378766
     73 H33         0.8180   -1.3910   -7.3670 hn        1 MOL      0.378766
     74 N8          3.0610   -0.6040   -2.6190 n         1 MOL     -0.329677
     75 C23         2.7250    0.7390   -2.1910 c3        1 MOL     -0.030748
     76 C24         1.1540    1.0600   -2.1740 c         1 MOL      0.588281
     77 O12         0.3310    0.1250   -2.2000 o         1 MOL     -0.565168
     78 H34         3.1060   -1.2280   -1.8150 hn        1 MOL      0.292940
     79 H35         3.3000    1.4420   -2.7920 h1        1 MOL      0.104675
     80 H36         3.0470    0.9350   -1.1630 h1        1 MOL      0.104675
     81 N9          0.7590    2.3800   -2.0650 n         1 MOL     -0.646431
     82 C25        -0.5290    2.8780   -1.8620 c3        1 MOL      0.434659
     83 C26        -1.1950    2.4010   -0.5290 c         1 MOL      0.316759
     84 O13        -0.5850    1.8550    0.3670 o         1 MOL     -0.474288
     85 C27        -0.5640    4.4430   -1.8260 c3        1 MOL     -0.181700
     86 C28        -1.9500    5.0750   -1.9740 ca        1 MOL     -0.026467
     87 C29        -2.9830    4.5570   -2.7690 ca        1 MOL     -0.087249
     88 C30        -2.2860    6.0340   -1.0440 ca        1 MOL     -0.087249
     89 C31        -4.2340    5.1780   -2.7570 ca        1 MOL     -0.252046
     90 C32        -3.5150    6.6450   -1.0550 ca        1 MOL     -0.252046
     91 C33        -4.5850    6.1830   -1.8410 ca        1 MOL      0.337015
     92 O14        -5.7770    6.8060   -1.8900 oh        1 MOL     -0.519130
     93 H37         1.5470    3.0110   -2.0920 hn        1 MOL      0.306497
     94 H38        -1.1740    2.6360   -2.7010 h1        1 MOL     -0.001245
     95 H39        -0.0620    4.7550   -2.7480 hc        1 MOL      0.097835
     96 H40         0.0300    4.8190   -0.9950 hc        1 MOL      0.097835
     97 H41        -2.8920    3.7890   -3.5200 ha        1 MOL      0.116741
     98 H42        -1.5380    6.5300   -0.4370 ha        1 MOL      0.116741
     99 H43        -4.9620    4.9230   -3.5140 ha        1 MOL      0.131146
    100 H44        -3.6590    7.5160   -0.4230 ha        1 MOL      0.131146
    101 H45        -5.6980    7.7140   -1.5830 ho        1 MOL      0.401969
    102 N10        -2.5190    2.5650   -0.4900 n         1 MOL     -0.353423
    103 C34        -3.5290    2.0160    0.4300 c3        1 MOL      0.208556
    104 C35        -4.5590    1.1840   -0.4510 c         1 MOL      0.467160
    105 O15        -4.8530    0.0390   -0.1940 o         1 MOL     -0.533763
    106 C36        -4.2820    3.0940    1.2490 c3        1 MOL      0.277013
    107 C37        -3.2460    4.0260    2.0850 c3        1 MOL     -0.411638
    108 C38        -5.2550    2.4420    2.1920 c3        1 MOL     -0.195737
    109 C39        -3.8540    4.8330    3.2310 c3        1 MOL     -0.245211
    110 H46        -2.9160    3.2180   -1.1520 hn        1 MOL      0.036663
    111 H47        -3.0980    1.3170    1.1420 h1        1 MOL      0.044122
    112 H48        -4.9080    3.6480    0.5450 hc        1 MOL     -0.065732
    113 H49        -2.8090    4.7440    1.4060 hc        1 MOL      0.172493
    114 H50        -2.5520    3.3300    2.5590 hc        1 MOL      0.172493
    115 H51        -6.1140    1.9800    1.7160 hc        1 MOL      0.041237
    116 H52        -4.8250    1.7050    2.8840 hc        1 MOL      0.041237
    117 H53        -5.7690    3.2340    2.7410 hc        1 MOL      0.041237
    118 H54        -4.2010    4.1620    4.0170 hc        1 MOL      0.076817
    119 H55        -3.1910    5.5080    3.7780 hc        1 MOL      0.076817
    120 H56        -4.6580    5.4780    2.8990 hc        1 MOL      0.076817
    121 N11        -5.1090    1.7440   -1.5210 n         1 MOL     -0.379078
    122 C40        -5.9990    1.0840   -2.5030 c3        1 MOL      0.049576
    123 C41        -7.3080    0.7460   -1.8970 c         1 MOL      0.274302
    124 O16        -7.9580   -0.2560   -2.1490 o         1 MOL     -0.481747
    125 C42        -6.2190    1.8760   -3.7710 c3        1 MOL      0.267670
    126 O17        -5.0220    2.3860   -4.2660 oh        1 MOL     -0.599174
    127 H57        -4.9640    2.6960   -1.8270 hn        1 MOL      0.287613
    128 H58        -5.6060    0.1180   -2.8460 h1        1 MOL      0.120155
    129 H59        -6.9130    2.6840   -3.5870 h1        1 MOL      0.000295
    130 H60        -6.5860    1.2190   -4.5580 h1        1 MOL      0.000295
    131 H61        -5.1530    3.0100   -4.9940 ho        1 MOL      0.405659
    132 N12        -7.7440    1.5280   -0.8740 n         1 MOL     -0.249105
    133 C43        -8.8530    1.2170    0.0190 c3        1 MOL      0.123020
    134 C44        -8.6820   -0.0670    0.8260 c         1 MOL      0.583555
    135 O18        -9.7550   -0.5060    1.2230 o         1 MOL     -0.536679
    136 C45       -10.2770    1.3970   -0.5960 c3        1 MOL     -0.341254
    137 H62        -7.1360    2.2970   -0.6070 hn        1 MOL      0.175438
    138 H63        -8.7450    2.0160    0.7620 h1        1 MOL      0.045725
    139 H64       -10.9360    1.5240    0.2670 hc        1 MOL      0.103443
    140 H65       -10.3150    2.3170   -1.1770 hc        1 MOL      0.103443
    141 H66       -10.8000    0.5410   -1.0190 hc        1 MOL      0.103443
    142 N13        -7.5050   -0.6980    0.9830 n         1 MOL     -0.724324
    143 C46        -7.2330   -1.9690    1.5850 c3        1 MOL      0.516342
    144 C47        -6.0250   -2.0670    2.5430 c         1 MOL      0.276639
    145 O19        -5.2850   -1.1170    2.6700 o         1 MOL     -0.477495
    146 C48        -7.0680   -2.9970    0.4560 c3        1 MOL     -0.453626
    147 H67        -6.7950   -0.3160    0.3800 hn        1 MOL      0.419304
    148 H68        -8.0890   -2.2470    2.1950 h1        1 MOL     -0.043254
    149 H69        -7.9400   -2.9100   -0.1860 hc        1 MOL      0.121117
    150 H70        -6.1540   -2.6770   -0.0450 hc        1 MOL      0.121117
    151 H71        -6.8450   -4.0250    0.7470 hc        1 MOL      0.121117
    152 N14        -5.8480   -3.1680    3.2020 n         1 MOL     -0.047038
    153 C49        -4.8600   -3.5090    4.2680 c3        1 MOL     -0.151639
    154 C50        -4.8660   -2.6220    5.5120 c         1 MOL      0.454455
    155 O20        -3.7720   -2.3080    6.0290 o         1 MOL     -0.488686
    156 C51        -3.4500   -3.6770    3.6390 c3        1 MOL      0.188793
    157 C52        -3.3990   -4.6810    2.4790 c3        1 MOL     -0.043087
    158 C53        -2.1320   -4.5480    1.6340 c         1 MOL      0.575903
    159 O21        -2.1210   -4.8320    0.4120 o         1 MOL     -0.718242
    160 O22        -1.0220   -4.2190    2.1130 o         1 MOL     -0.718242
    161 H72        -6.6180   -3.8130    3.0680 hn        1 MOL      0.140318
    162 H73        -5.1470   -4.4970    4.6100 h1        1 MOL      0.052431
    163 H74        -2.7380   -4.0080    4.3950 hc        1 MOL      0.013022
    164 H75        -3.1090   -2.6920    3.3170 hc        1 MOL      0.013022
    165 H76        -4.3090   -4.6050    1.8750 hc        1 MOL     -0.021752
    166 H77        -3.5170   -5.6660    2.9340 hc        1 MOL     -0.021752
    167 N15        -6.0590   -2.1620    5.8870 n         1 MOL     -0.357908
    168 C54        -6.2630   -1.0590    6.8160 c3        1 MOL      0.023701
    169 H78        -7.0550   -1.3180    7.5200 h1        1 MOL      0.050091
    170 H79        -5.3400   -0.8680    7.3630 h1        1 MOL      0.050091
    171 H80        -6.5490   -0.1650    6.2620 h1        1 MOL      0.050091
    172 H81        -6.8300   -2.4090    5.2900 hn        1 MOL      0.219947
    173 Ca1         0.3240   -4.3370   -0.1370 Ca        1 MOL      1.792716
    174 O23        -0.4830   -6.8130   -0.9600 oh        1 MOL     -0.828057
    175 H82         0.2370   -7.4430   -0.9600 ho        1 MOL      0.407858
    176 H83        -1.2730   -7.3400   -0.8820 ho        1 MOL      0.407858
    177 O24        -0.5470   -1.9210   -0.4550 oh        1 MOL     -0.828057
    178 H84        -1.0370   -1.4940    0.2590 ho        1 MOL      0.407858
    179 H85        -0.2900   -1.1950   -1.0230 ho        1 MOL      0.407858
    180 O25        -0.9230   -3.8390   -2.6230 oh        1 MOL     -0.828057
    181 H86        -0.9860   -2.9410   -2.9580 ho        1 MOL      0.407858
    182 H87        -1.7920   -4.0400   -2.2950 ho        1 MOL      0.407858
    183 O26         1.8530   -5.1060   -2.0910 oh        1 MOL     -0.828057
    184 H88         2.4860   -5.8210   -2.1180 ho        1 MOL      0.407858
    185 H89         1.4800   -5.0840   -2.9790 ho        1 MOL      0.407858
    186 O27         1.8450   -6.1460    1.1600 oh        1 MOL     -0.828057
    187 H90         1.8060   -6.9500    1.6820 ho        1 MOL      0.407858
    188 H91         2.7730   -5.9740    1.0460 ho        1 MOL      0.407858
@<TRIPOS>BOND
     1    1    2 1   
     2    1    4 1   
     3    1    5 1   
     4    1    6 1   
     5    2    3 2   
     6    2    7 1   
     7    7    8 1   
     8    7   15 1   
     9    8    9 1   
    10    8   11 1   
    11    8   16 1   
    12    9   10 2   
    13    9   19 1   
    14   11   12 1   
    15   11   17 1   
    16   11   18 1   
    17   12   13 1   
    18   12   14 1   
    19   19   20 1   
    20   19   28 1   
    21   20   21 1   
    22   20   23 1   
    23   20   29 1   
    24   21   22 2   
    25   21   41 1   
    26   23   24 1   
    27   23   30 1   
    28   23   31 1   
    29   24   25 1   
    30   24   32 1   
    31   24   33 1   
    32   25   26 1   
    33   25   34 1   
    34   25   35 1   
    35   26   27 1   
    36   26   36 1   
    37   26   37 1   
    38   27   38 1   
    39   27   39 1   
    40   27   40 1   
    41   41   42 1   
    42   41   49 1   
    43   42   43 1   
    44   42   45 1   
    45   42   50 1   
    46   43   44 2   
    47   43   53 1   
    48   45   46 1   
    49   45   51 1   
    50   45   52 1   
    51   46   47 1   
    52   46   48 1   
    53   53   54 1   
    54   53   57 1   
    55   54   55 1   
    56   54   58 1   
    57   54   59 1   
    58   55   56 2   
    59   55   60 1   
    60   60   61 1   
    61   60   68 1   
    62   61   62 1   
    63   61   64 1   
    64   61   69 1   
    65   62   63 2   
    66   62   74 1   
    67   64   65 1   
    68   64   70 1   
    69   64   71 1   
    70   65   66 1   
    71   65   67 2   
    72   66   72 1   
    73   66   73 1   
    74   74   75 1   
    75   74   78 1   
    76   75   76 1   
    77   75   79 1   
    78   75   80 1   
    79   76   77 2   
    80   76   81 1   
    81   81   82 1   
    82   81   93 1   
    83   82   83 1   
    84   82   85 1   
    85   82   94 1   
    86   83   84 2   
    87   83  102 1   
    88   85   86 1   
    89   85   95 1   
    90   85   96 1   
    91   86   87 ar  
    92   86   88 ar  
    93   87   89 ar  
    94   87   97 1   
    95   88   90 ar  
    96   88   98 1   
    97   89   91 ar  
    98   89   99 1   
    99   90   91 ar  
   100   90  100 1   
   101   91   92 1   
   102   92  101 1   
   103  102  103 1   
   104  102  110 1   
   105  103  104 1   
   106  103  106 1   
   107  103  111 1   
   108  104  105 2   
   109  104  121 1   
   110  106  107 1   
   111  106  108 1   
   112  106  112 1   
   113  107  109 1   
   114  107  113 1   
   115  107  114 1   
   116  108  115 1   
   117  108  116 1   
   118  108  117 1   
   119  109  118 1   
   120  109  119 1   
   121  109  120 1   
   122  121  122 1   
   123  121  127 1   
   124  122  123 1   
   125  122  125 1   
   126  122  128 1   
   127  123  124 2   
   128  123  132 1   
   129  125  126 1   
   130  125  129 1   
   131  125  130 1   
   132  126  131 1   
   133  132  133 1   
   134  132  137 1   
   135  133  134 1   
   136  133  136 1   
   137  133  138 1   
   138  134  135 2   
   139  134  142 1   
   140  136  139 1   
   141  136  140 1   
   142  136  141 1   
   143  142  143 1   
   144  142  147 1   
   145  143  144 1   
   146  143  146 1   
   147  143  148 1   
   148  144  145 2   
   149  144  152 1   
   150  146  149 1   
   151  146  150 1   
   152  146  151 1   
   153  152  153 1   
   154  152  161 1   
   155  153  154 1   
   156  153  156 1   
   157  153  162 1   
   158  154  155 2   
   159  154  167 1   
   160  156  157 1   
   161  156  163 1   
   162  156  164 1   
   163  157  158 1   
   164  157  165 1   
   165  157  166 1   
   166  158  159 1   
   167  158  160 1   
   168  167  168 1   
   169  167  172 1   
   170  168  169 1   
   171  168  170 1   
   172  168  171 1   
   173  174  175 1   
   174  174  176 1   
   175  177  178 1   
   176  177  179 1   
   177  180  181 1   
   178  180  182 1   
   179  183  184 1   
   180  183  185 1   
   181  186  187 1   
   182  186  188 1   
@<TRIPOS>SUBSTRUCTURE
     1 MOL         1 TEMP              0 ****  ****    0 ROOT
