@<TRIPOS>MOLECULE
MOL
  189   185     1     0     0
SMALL
resp


@<TRIPOS>ATOM
      1 C1         -3.8050   -4.6240   -3.7830 c3        1 MOL     -0.384209
      2 C2         -4.5780   -3.9310   -2.6360 c         1 MOL      0.598547
      3 O1         -4.0400   -3.7960   -1.4950 o         1 MOL     -0.480285
      4 H1         -4.5010   -4.9030   -4.5740 hc        1 MOL      0.104655
      5 H2         -3.0570   -3.9390   -4.1830 hc        1 MOL      0.104655
      6 H3         -3.3120   -5.5180   -3.4020 hc        1 MOL      0.104655
      7 N1         -5.8640   -3.6440   -2.8840 n         1 MOL     -0.543283
      8 C3         -6.6380   -2.7250   -2.0720 c3        1 MOL      0.022236
      9 C4         -5.9450   -1.3690   -1.7750 c         1 MOL      0.608868
     10 O2         -5.3630   -1.1930   -0.6980 o         1 MOL     -0.719776
     11 C5         -7.3870   -3.4480   -0.9220 c3        1 MOL     -0.141608
     12 C6         -6.5260   -4.2860    0.0310 c         1 MOL      0.843317
     13 O3         -6.0020   -3.6900    0.9970 o         1 MOL     -0.751558
     14 O4         -6.4980   -5.4890   -0.0200 o         1 MOL     -0.751558
     15 H4         -6.3070   -3.9280   -3.7480 hn        1 MOL      0.341408
     16 H5         -7.4000   -2.4630   -2.8120 h1        1 MOL      0.021504
     17 H6         -8.1100   -4.1720   -1.2850 hc        1 MOL      0.022899
     18 H7         -7.9240   -2.7100   -0.3240 hc        1 MOL      0.022899
     19 N2         -5.8230   -0.5560   -2.8010 n         1 MOL     -0.485604
     20 C7         -5.1760    0.7930   -2.8120 c3        1 MOL      0.132720
     21 C8         -5.8890    1.8430   -1.9320 c         1 MOL      0.386331
     22 O5         -6.4920    2.8060   -2.4070 o         1 MOL     -0.597345
     23 C9         -3.6300    0.7120   -2.6580 c3        1 MOL      0.002690
     24 C10        -2.9250    1.9760   -3.1620 c3        1 MOL      0.085085
     25 C11        -3.0240   -0.4910   -3.4700 c3        1 MOL     -0.244223
     26 C12        -2.8340    2.2820   -4.6530 c3        1 MOL     -0.182737
     27 H8         -6.1440   -0.8640   -3.7110 hn        1 MOL      0.280656
     28 H9         -5.3000    1.1560   -3.8330 h1        1 MOL      0.042357
     29 H10        -3.2840    0.5010   -1.6470 hc        1 MOL      0.021796
     30 H11        -1.9690    2.0670   -2.6630 hc        1 MOL      0.032537
     31 H12        -3.4170    2.8460   -2.7160 hc        1 MOL      0.032537
     32 H13        -1.9330   -0.4680   -3.5230 hc        1 MOL      0.051300
     33 H14        -3.3430   -1.4270   -3.0200 hc        1 MOL      0.051300
     34 H15        -3.3120   -0.5260   -4.5260 hc        1 MOL      0.051300
     35 H16        -2.0980    1.7020   -5.2080 hc        1 MOL      0.030011
     36 H17        -3.7780    2.0860   -5.1650 hc        1 MOL      0.030011
     37 H18        -2.5970    3.3190   -4.8680 hc        1 MOL      0.030011
     38 N3         -5.8420    1.7480   -0.6520 n         1 MOL     -0.054088
     39 C13        -6.9400    2.1900    0.2530 c3        1 MOL      0.101493
     40 C14        -6.6920    3.4900    0.9500 c         1 MOL      0.474451
     41 O6         -7.6870    4.1000    1.2340 o         1 MOL     -0.511757
     42 C15        -7.2030    1.0460    1.1730 c3        1 MOL     -0.283023
     43 C16        -8.4660    1.2940    2.0090 c         1 MOL      0.712618
     44 O7         -9.5700    1.2280    1.4580 o         1 MOL     -0.698630
     45 O8         -8.3470    1.6420    3.2050 o         1 MOL     -0.698630
     46 H19        -5.2450    1.0260   -0.2590 hn        1 MOL      0.145255
     47 H20        -7.8460    2.3510   -0.3340 h1        1 MOL      0.052391
     48 H21        -6.3270    0.9190    1.8040 hc        1 MOL      0.082016
     49 H22        -7.2360    0.1030    0.6230 hc        1 MOL      0.082016
     50 N4         -5.5060    3.9500    1.2930 n         1 MOL     -0.475499
     51 C17        -4.2130    3.2240    1.2840 c3        1 MOL      0.315016
     52 C18        -3.1490    3.8360    2.1190 c         1 MOL      0.523801
     53 O9         -3.1610    5.0680    2.2290 o         1 MOL     -0.546027
     54 H23        -5.4030    4.8960    1.6230 hn        1 MOL      0.260369
     55 H24        -3.8970    3.1810    0.2400 h1        1 MOL     -0.076741
     56 H25        -4.3180    2.1730    1.5550 h1        1 MOL     -0.076741
     57 N5         -2.2070    3.0970    2.7230 n         1 MOL     -0.558821
     58 C19        -2.0500    1.6450    3.0820 c3        1 MOL      0.357654
     59 C20        -2.2570    0.6580    1.9170 c         1 MOL      0.241693
     60 O10        -3.2870    0.0560    1.8240 o         1 MOL     -0.510180
     61 C21        -3.0240    1.3030    4.2500 c3        1 MOL     -0.433819
     62 C22        -2.7550   -0.0430    4.9020 c         1 MOL      0.761343
     63 O11        -3.7500   -0.6940    5.3060 o         1 MOL     -0.695529
     64 O12        -1.6150   -0.5060    4.9490 o         1 MOL     -0.695529
     65 H26        -1.5940    3.6750    3.2760 hn        1 MOL      0.262782
     66 H27        -1.0680    1.4490    3.4980 h1        1 MOL      0.011225
     67 H28        -4.0110    1.4410    3.8130 hc        1 MOL      0.107164
     68 H29        -2.9680    2.1190    4.9740 hc        1 MOL      0.107164
     69 N6         -1.3580    0.5640    0.9450 n         1 MOL     -0.263905
     70 C23        -0.0990    1.3320    0.6450 c3        1 MOL     -0.032014
     71 C24        -0.2350    2.7030    0.1300 c         1 MOL      0.648241
     72 O13        -1.3200    3.0000   -0.3920 o         1 MOL     -0.488448
     73 H30        -1.6550   -0.1120    0.2530 hn        1 MOL      0.295708
     74 H31         0.4720    0.7810   -0.1020 h1        1 MOL      0.003339
     75 H32         0.5090    1.3850    1.5440 h1        1 MOL      0.003339
     76 N7          0.8560    3.4220    0.2700 n         1 MOL     -0.454752
     77 C25         1.0270    4.7370   -0.3930 c3        1 MOL     -0.193129
     78 C26         1.7180    4.4750   -1.7890 c         1 MOL      0.425817
     79 O14         1.4630    5.2550   -2.7320 o         1 MOL     -0.518104
     80 C27         1.7130    5.8330    0.4400 c3        1 MOL      0.208765
     81 C28         1.0270    6.3270    1.7020 c3        1 MOL     -0.195014
     82 C29        -0.1010    7.3510    1.4400 c         1 MOL      0.723162
     83 N8         -0.8430    7.8580    2.3960 n         1 MOL     -0.869937
     84 O15        -0.2930    7.7560    0.3260 o         1 MOL     -0.564518
     85 H33         1.6480    3.0830    0.8140 hn        1 MOL      0.294140
     86 H34         0.0520    5.1280   -0.6620 h1        1 MOL      0.165479
     87 H35         1.9760    6.7410   -0.1050 hc        1 MOL     -0.001926
     88 H36         2.7030    5.4940    0.7390 hc        1 MOL     -0.001926
     89 H37         1.7770    6.7810    2.3560 hc        1 MOL      0.027751
     90 H38         0.6450    5.4880    2.2730 hc        1 MOL      0.027751
     91 H39        -0.6530    7.5910    3.3430 hn        1 MOL      0.389883
     92 H40        -1.5140    8.5480    2.0710 hn        1 MOL      0.389883
     93 N9          2.5250    3.4770   -1.9620 n         1 MOL     -0.217533
     94 C30         3.1530    3.0950   -3.2240 c3        1 MOL     -0.057701
     95 C31         4.6550    2.8260   -3.0910 c         1 MOL      0.528886
     96 O16         5.5250    3.1180   -3.9670 o         1 MOL     -0.554802
     97 C32         2.4710    1.9090   -3.8480 c3        1 MOL      0.066548
     98 C33         1.2200    2.3540   -4.6280 c3        1 MOL     -0.330564
     99 C34         2.1330    0.8320   -2.8270 c3        1 MOL     -0.330564
    100 H41         2.6690    2.8360   -1.1930 hn        1 MOL      0.134721
    101 H42         3.1280    3.9880   -3.8470 h1        1 MOL      0.120223
    102 H43         3.1540    1.5470   -4.6220 hc        1 MOL      0.041502
    103 H44         0.6230    3.0370   -4.0150 hc        1 MOL      0.100025
    104 H45         1.5690    3.0380   -5.3920 hc        1 MOL      0.100025
    105 H46         0.6600    1.5290   -5.0740 hc        1 MOL      0.100025
    106 H47         1.7760   -0.0600   -3.3280 hc        1 MOL      0.100025
    107 H48         3.0320    0.6270   -2.2510 hc        1 MOL      0.100025
    108 H49         1.3410    1.1420   -2.1430 hc        1 MOL      0.100025
    109 N10         5.0290    2.2880   -1.9430 n         1 MOL     -0.438494
    110 C35         6.4260    2.1010   -1.5540 c3        1 MOL      0.066279
    111 C36         6.7320    0.6630   -1.0700 c         1 MOL      0.622419
    112 O17         7.7630    0.1810   -1.4540 o         1 MOL     -0.554529
    113 C37         6.6530    3.1580   -0.4180 c3        1 MOL     -0.540646
    114 C38         6.6350    4.5940   -0.9250 c         1 MOL      0.738285
    115 N11         7.3280    4.8760   -1.9820 n         1 MOL     -0.788273
    116 O18         6.0200    5.4790   -0.3840 o         1 MOL     -0.569191
    117 H50         4.3100    2.1640   -1.2400 hn        1 MOL      0.337387
    118 H51         7.1140    2.2760   -2.3820 h1        1 MOL      0.087179
    119 H52         7.6280    2.8820   -0.0040 hc        1 MOL      0.160615
    120 H53         5.9070    3.0680    0.3690 hc        1 MOL      0.160615
    121 H54         7.8090    4.1210   -2.4630 hn        1 MOL      0.375906
    122 H55         7.3440    5.8400   -2.2950 hn        1 MOL      0.375906
    123 N12         5.8580    0.0180   -0.3360 n         1 MOL     -0.474073
    124 C39         6.1590   -1.2650    0.3240 c3        1 MOL      0.197469
    125 C40         4.9620   -2.1910    0.4410 c         1 MOL      0.432253
    126 O19         3.8290   -1.7500    0.2820 o         1 MOL     -0.463774
    127 C41         6.8120   -1.0990    1.7150 c3        1 MOL     -0.118985
    128 C42         8.2520   -0.6640    1.8160 ca        1 MOL     -0.019695
    129 C43         9.2570   -1.5430    1.3320 ca        1 MOL     -0.087410
    130 C44         8.5980    0.5430    2.4500 ca        1 MOL     -0.087410
    131 C45        10.6280   -1.2630    1.5270 ca        1 MOL     -0.303893
    132 C46         9.9590    0.9010    2.6180 ca        1 MOL     -0.303893
    133 C47        10.9390   -0.0520    2.2450 ca        1 MOL      0.341691
    134 O20        12.2630    0.2440    2.3650 oh        1 MOL     -0.520051
    135 H56         4.9530    0.4380   -0.2300 hn        1 MOL      0.250646
    136 H57         6.8900   -1.8070   -0.2700 h1        1 MOL      0.019794
    137 H58         6.6920   -2.0040    2.3140 hc        1 MOL      0.072765
    138 H59         6.1580   -0.3710    2.2150 hc        1 MOL      0.072765
    139 H60         9.0120   -2.4950    0.8870 ha        1 MOL      0.108474
    140 H61         7.7930    1.0700    2.9300 ha        1 MOL      0.108474
    141 H62        11.3180   -1.9970    1.1430 ha        1 MOL      0.152170
    142 H63        10.2930    1.6720    3.2890 ha        1 MOL      0.152170
    143 H64        12.8500   -0.3860    1.9560 ho        1 MOL      0.370487
    144 N13         5.2100   -3.5140    0.7340 n         1 MOL     -0.546285
    145 C48         4.1920   -4.6060    0.9360 c3        1 MOL     -0.024812
    146 C49         3.2390   -4.9830   -0.2570 c         1 MOL      0.535833
    147 O21         3.0110   -6.1640   -0.4290 o         1 MOL     -0.536811
    148 C50         3.4610   -4.5260    2.2300 c3        1 MOL      0.445705
    149 C51         4.4070   -4.7700    3.4440 c3        1 MOL     -0.418646
    150 C52         3.7400   -4.6690    4.8320 c         1 MOL      0.718661
    151 O22         4.1820   -3.8430    5.6630 o         1 MOL     -0.718233
    152 O23         2.6970   -5.2470    5.0630 o         1 MOL     -0.718233
    153 H65         6.1540   -3.8140    0.9490 hn        1 MOL      0.322095
    154 H66         4.8130   -5.4890    1.0590 h1        1 MOL      0.027609
    155 H67         2.7290   -5.3320    2.3080 hc        1 MOL     -0.033038
    156 H68         2.8400   -3.6360    2.2580 hc        1 MOL     -0.033038
    157 H69         5.2230   -4.0430    3.3940 hc        1 MOL      0.039648
    158 H70         4.6340   -5.8320    3.3440 hc        1 MOL      0.039648
    159 N14         2.7370   -4.0190   -1.0750 n         1 MOL     -0.392096
    160 C53         1.6820   -4.2430   -1.9990 c3        1 MOL     -0.398489
    161 C54         2.0760   -4.8920   -3.2930 c         1 MOL      0.618883
    162 O24         1.2330   -5.1820   -4.1130 o         1 MOL     -0.563835
    163 C55         0.9880   -2.8440   -2.1880 c3        1 MOL     -0.054157
    164 C56         0.4710   -2.1710   -0.8500 c3        1 MOL      0.404208
    165 C57        -1.0100   -2.4000   -0.4870 c         1 MOL      0.665371
    166 O25        -1.8680   -1.5530   -0.6540 o         1 MOL     -0.727894
    167 O26        -1.4540   -3.4940   -0.0780 o         1 MOL     -0.727894
    168 H71         2.9650   -3.0640   -0.8600 hn        1 MOL      0.253601
    169 H72         1.0080   -4.9110   -1.4700 h1        1 MOL      0.221242
    170 H73         0.1350   -2.8910   -2.8680 hc        1 MOL      0.054997
    171 H74         1.6140   -2.1950   -2.8030 hc        1 MOL      0.054997
    172 H75         0.7440   -1.1300   -0.9990 hc        1 MOL     -0.155311
    173 H76         0.9530   -2.5380    0.0610 hc        1 MOL     -0.155311
    174 N15         3.3590   -5.0540   -3.5150 n         1 MOL     -0.283202
    175 C58         3.9370   -5.7370   -4.7100 c3        1 MOL     -0.087329
    176 H77         3.1310   -6.1480   -5.3180 h1        1 MOL      0.061828
    177 H78         4.5070   -5.0200   -5.3000 h1        1 MOL      0.061828
    178 H79         4.5930   -6.5440   -4.3850 h1        1 MOL      0.061828
    179 H80         3.9990   -4.8710   -2.7560 hn        1 MOL      0.233540
    180 Ca1        -3.7520   -2.4870    0.8040 Ca        1 MOL      1.804494
    181 O27        -3.1910   -5.1390    1.4520 oh        1 MOL     -0.854153
    182 H81        -3.0510   -5.7370    0.7230 ho        1 MOL      0.416606
    183 H82        -2.6780   -5.5120    2.1680 ho        1 MOL      0.416606
    184 O28        -1.7990   -2.7200    2.8400 oh        1 MOL     -0.854153
    185 H83        -0.8760   -2.9490    2.7180 ho        1 MOL      0.416606
    186 H84        -1.8340   -2.2970    3.6930 ho        1 MOL      0.416606
    187 O29        -5.1500   -1.6750    3.0330 oh        1 MOL     -0.854153
    188 H85        -6.0000   -1.3790    3.3510 ho        1 MOL      0.416606
    189 H86        -4.5120   -1.2230    3.5890 ho        1 MOL      0.416606
@<TRIPOS>BOND
     1    1    2 1   
     2    1    4 1   
     3    1    5 1   
     4    1    6 1   
     5    2    3 2   
     6    2    7 1   
     7    7    8 1   
     8    7   15 1   
     9    8    9 1   
    10    8   11 1   
    11    8   16 1   
    12    9   10 2   
    13    9   19 1   
    14   11   12 1   
    15   11   17 1   
    16   11   18 1   
    17   12   13 1   
    18   12   14 1   
    19   19   20 1   
    20   19   27 1   
    21   20   21 1   
    22   20   23 1   
    23   20   28 1   
    24   21   22 2   
    25   21   38 1   
    26   23   24 1   
    27   23   25 1   
    28   23   29 1   
    29   24   26 1   
    30   24   30 1   
    31   24   31 1   
    32   25   32 1   
    33   25   33 1   
    34   25   34 1   
    35   26   35 1   
    36   26   36 1   
    37   26   37 1   
    38   38   39 1   
    39   38   46 1   
    40   39   40 1   
    41   39   42 1   
    42   39   47 1   
    43   40   41 2   
    44   40   50 1   
    45   42   43 1   
    46   42   48 1   
    47   42   49 1   
    48   43   44 1   
    49   43   45 1   
    50   50   51 1   
    51   50   54 1   
    52   51   52 1   
    53   51   55 1   
    54   51   56 1   
    55   52   53 2   
    56   52   57 1   
    57   57   58 1   
    58   57   65 1   
    59   58   59 1   
    60   58   61 1   
    61   58   66 1   
    62   59   60 2   
    63   59   69 1   
    64   61   62 1   
    65   61   67 1   
    66   61   68 1   
    67   62   63 1   
    68   62   64 1   
    69   69   70 1   
    70   69   73 1   
    71   70   71 1   
    72   70   74 1   
    73   70   75 1   
    74   71   72 2   
    75   71   76 1   
    76   76   77 1   
    77   76   85 1   
    78   77   78 1   
    79   77   80 1   
    80   77   86 1   
    81   78   79 2   
    82   78   93 1   
    83   80   81 1   
    84   80   87 1   
    85   80   88 1   
    86   81   82 1   
    87   81   89 1   
    88   81   90 1   
    89   82   83 1   
    90   82   84 2   
    91   83   91 1   
    92   83   92 1   
    93   93   94 1   
    94   93  100 1   
    95   94   95 1   
    96   94   97 1   
    97   94  101 1   
    98   95   96 2   
    99   95  109 1   
   100   97   98 1   
   101   97   99 1   
   102   97  102 1   
   103   98  103 1   
   104   98  104 1   
   105   98  105 1   
   106   99  106 1   
   107   99  107 1   
   108   99  108 1   
   109  109  110 1   
   110  109  117 1   
   111  110  111 1   
   112  110  113 1   
   113  110  118 1   
   114  111  112 2   
   115  111  123 1   
   116  113  114 1   
   117  113  119 1   
   118  113  120 1   
   119  114  115 1   
   120  114  116 2   
   121  115  121 1   
   122  115  122 1   
   123  123  124 1   
   124  123  135 1   
   125  124  125 1   
   126  124  127 1   
   127  124  136 1   
   128  125  126 2   
   129  125  144 1   
   130  127  128 1   
   131  127  137 1   
   132  127  138 1   
   133  128  129 ar  
   134  128  130 ar  
   135  129  131 ar  
   136  129  139 1   
   137  130  132 ar  
   138  130  140 1   
   139  131  133 ar  
   140  131  141 1   
   141  132  133 ar  
   142  132  142 1   
   143  133  134 1   
   144  134  143 1   
   145  144  145 1   
   146  144  153 1   
   147  145  146 1   
   148  145  148 1   
   149  145  154 1   
   150  146  147 2   
   151  146  159 1   
   152  148  149 1   
   153  148  155 1   
   154  148  156 1   
   155  149  150 1   
   156  149  157 1   
   157  149  158 1   
   158  150  151 1   
   159  150  152 1   
   160  159  160 1   
   161  159  168 1   
   162  160  161 1   
   163  160  163 1   
   164  160  169 1   
   165  161  162 2   
   166  161  174 1   
   167  163  164 1   
   168  163  170 1   
   169  163  171 1   
   170  164  165 1   
   171  164  172 1   
   172  164  173 1   
   173  165  166 1   
   174  165  167 1   
   175  174  175 1   
   176  174  179 1   
   177  175  176 1   
   178  175  177 1   
   179  175  178 1   
   180  181  182 1   
   181  181  183 1   
   182  184  185 1   
   183  184  186 1   
   184  187  188 1   
   185  187  189 1   
@<TRIPOS>SUBSTRUCTURE
     1 MOL         1 TEMP              0 ****  ****    0 ROOT
