@<TRIPOS>MOLECULE
MOL
  182   178     1     0     0
SMALL
resp


@<TRIPOS>ATOM
      1 C1          0.0530   -2.9860    6.1690 c3        1 MOL     -0.371400
      2 C2          0.2730   -3.2970    4.6120 c         1 MOL      0.732764
      3 O1         -0.7840   -3.5460    3.9960 o         1 MOL     -0.585194
      4 H1          0.2820   -1.9390    6.3660 hc        1 MOL      0.104823
      5 H2         -0.9840   -3.1870    6.4370 hc        1 MOL      0.104823
      6 H3          0.7120   -3.6200    6.7630 hc        1 MOL      0.104823
      7 N1          1.4980   -3.2860    4.1120 n         1 MOL     -0.578727
      8 C3          1.9260   -3.0700    2.7350 c3        1 MOL      0.011265
      9 C4          2.1320   -4.3720    1.9750 c         1 MOL      0.684553
     10 O2          2.7590   -5.2870    2.4440 o         1 MOL     -0.541525
     11 C5          3.1260   -2.1930    2.7650 c3        1 MOL     -0.141140
     12 C6          3.5280   -1.5010    1.4550 c         1 MOL      0.704630
     13 O3          4.0690   -0.3580    1.4380 o         1 MOL     -0.733101
     14 O4          3.2160   -1.9400    0.3810 o         1 MOL     -0.733101
     15 H4          2.2740   -3.1790    4.7390 hn        1 MOL      0.324704
     16 H5          1.1650   -2.4200    2.3020 h1        1 MOL     -0.021188
     17 H6          3.9840   -2.8550    2.9350 hc        1 MOL      0.057547
     18 H7          3.1390   -1.3890    3.5040 hc        1 MOL      0.057547
     19 N2          1.5440   -4.3460    0.7630 n         1 MOL     -0.390252
     20 C7          1.4850   -5.4580   -0.2540 c3        1 MOL     -0.083154
     21 C8          2.6590   -5.4260   -1.2700 c         1 MOL      0.490035
     22 O5          2.9230   -6.4720   -1.9020 o         1 MOL     -0.549580
     23 C9          0.1230   -5.4090   -0.9940 c3        1 MOL     -0.003737
     24 C10         0.0220   -6.0700   -2.3540 c3        1 MOL     -0.126886
     25 C11        -1.3030   -5.9560   -3.0590 c3        1 MOL     -0.025102
     26 C12        -2.2380   -6.8700   -2.3060 c3        1 MOL      0.191732
     27 N3         -3.5290   -7.1660   -3.0490 n4        1 MOL     -0.398040
     28 H8          1.1050   -3.4670    0.5180 hn        1 MOL      0.203357
     29 H9          1.5430   -6.4280    0.2300 h1        1 MOL      0.127707
     30 H10        -0.1900   -4.3740   -1.1100 hc        1 MOL      0.036428
     31 H11        -0.6490   -5.7200   -0.2910 hc        1 MOL      0.036428
     32 H12         0.3720   -7.1020   -2.3320 hc        1 MOL      0.071091
     33 H13         0.7320   -5.5540   -3.0060 hc        1 MOL      0.071091
     34 H14        -1.1710   -6.3180   -4.0780 hc        1 MOL      0.030270
     35 H15        -1.6730   -4.9320   -3.0250 hc        1 MOL      0.030270
     36 H16        -2.4970   -6.4740   -1.3310 hx        1 MOL      0.034830
     37 H17        -1.7340   -7.8180   -2.0910 hx        1 MOL      0.034830
     38 H18        -3.3010   -7.6300   -3.9160 hn        1 MOL      0.285786
     39 H19        -4.0760   -7.8000   -2.4870 hn        1 MOL      0.285786
     40 H20        -4.0520   -6.3160   -3.1990 hn        1 MOL      0.285786
     41 N4          3.4970   -4.3350   -1.2900 n         1 MOL     -0.122856
     42 C13         4.6600   -4.2670   -2.0520 c3        1 MOL      0.044157
     43 C14         5.9020   -3.8570   -1.1910 c         1 MOL      0.391396
     44 O6          7.0500   -4.0250   -1.7430 o         1 MOL     -0.560078
     45 C15         4.5270   -3.2160   -3.2270 c3        1 MOL     -0.166222
     46 C16         4.1230   -1.7720   -2.9940 c         1 MOL      0.824108
     47 O7          4.7890   -1.1380   -2.1590 o         1 MOL     -0.799454
     48 O8          2.9300   -1.3460   -3.1670 o         1 MOL     -0.799454
     49 H21         3.2720   -3.4880   -0.7810 hn        1 MOL     -0.005136
     50 H22         4.9860   -5.2340   -2.4350 h1        1 MOL      0.106501
     51 H23         3.8240   -3.6860   -3.9190 hc        1 MOL      0.043953
     52 H24         5.4370   -3.1230   -3.8110 hc        1 MOL      0.043953
     53 N5          5.7640   -3.2930   -0.0330 n         1 MOL     -0.180699
     54 C17         6.7880   -2.9190    0.9640 c3        1 MOL     -0.167976
     55 C18         7.1100   -1.3920    1.1100 c         1 MOL      0.516017
     56 O9          7.6310   -1.0290    2.1900 o         1 MOL     -0.538783
     57 H25         4.8390   -3.0520    0.2980 hn        1 MOL      0.199592
     58 H26         7.7530   -3.3480    0.6940 h1        1 MOL      0.116056
     59 H27         6.4500   -3.2770    1.9340 h1        1 MOL      0.116056
     60 N6          6.8360   -0.5290    0.1020 n         1 MOL     -0.292602
     61 C19         7.4200    0.7940    0.0600 c3        1 MOL      0.302319
     62 C20         6.3740    1.8790   -0.3590 c         1 MOL      0.308597
     63 O10         5.2130    1.5970   -0.5990 o         1 MOL     -0.351178
     64 C21         8.6360    0.8760   -0.9590 c3        1 MOL     -0.482828
     65 C22         9.8050   -0.0680   -0.6390 c         1 MOL      0.766132
     66 N7          9.7470   -1.2600   -1.2250 n         1 MOL     -0.804057
     67 O11        10.7680    0.2600   -0.0070 o         1 MOL     -0.552006
     68 H28         6.2230   -0.8320   -0.6390 hn        1 MOL      0.267086
     69 H29         7.7720    1.1170    1.0440 h1        1 MOL      0.032595
     70 H30         9.0110    1.8880   -0.8030 hc        1 MOL      0.097443
     71 H31         8.2160    0.8270   -1.9560 hc        1 MOL      0.097443
     72 H32         9.1150   -1.4230   -2.0010 hn        1 MOL      0.362495
     73 H33        10.5620   -1.8590   -1.1930 hn        1 MOL      0.362495
     74 N8          6.7500    3.1310   -0.2810 n         1 MOL     -0.347792
     75 C23         5.9430    4.3890   -0.4370 c3        1 MOL     -0.131220
     76 C24         4.7240    4.5840    0.4110 c         1 MOL      0.551335
     77 O12         4.6970    4.2700    1.6380 o         1 MOL     -0.480527
     78 H34         7.7330    3.1880   -0.0330 hn        1 MOL      0.304706
     79 H35         5.6680    4.3540   -1.4950 h1        1 MOL      0.089422
     80 H36         6.5910    5.2730   -0.3860 h1        1 MOL      0.089422
     81 N9          3.6800    5.0770   -0.2020 n         1 MOL     -0.470985
     82 C25         2.2900    5.0630    0.2960 c3        1 MOL     -0.047247
     83 C26         1.8320    3.5960    0.6770 c         1 MOL      0.633709
     84 O13         2.4390    2.6660    0.1800 o         1 MOL     -0.529877
     85 C27         1.3390    5.7210   -0.7010 c3        1 MOL     -0.188249
     86 C28         1.4160    7.2000   -0.9430 ca        1 MOL      0.084966
     87 C29         1.7080    8.1210    0.0990 ca        1 MOL     -0.127050
     88 C30         1.1810    7.6780   -2.2070 ca        1 MOL     -0.127050
     89 C31         1.8580    9.5170   -0.1180 ca        1 MOL     -0.300829
     90 C32         1.2980    9.0240   -2.4350 ca        1 MOL     -0.300829
     91 C33         1.6560    9.9210   -1.3910 ca        1 MOL      0.396139
     92 O14         1.9050   11.1950   -1.7430 oh        1 MOL     -0.507988
     93 H37         3.8020    5.2670   -1.1800 hn        1 MOL      0.293626
     94 H38         2.2460    5.6820    1.1980 h1        1 MOL      0.098739
     95 H39         0.3430    5.3450   -0.4970 hc        1 MOL      0.063907
     96 H40         1.6190    5.2800   -1.6640 hc        1 MOL      0.063907
     97 H41         1.8200    7.8220    1.1340 ha        1 MOL      0.129027
     98 H42         0.9860    6.9870   -3.0170 ha        1 MOL      0.129027
     99 H43         2.0850   10.2170    0.6800 ha        1 MOL      0.169222
    100 H44         1.1930    9.3510   -3.4640 ha        1 MOL      0.169222
    101 H45         2.2580   11.7090   -1.0210 ho        1 MOL      0.382059
    102 N10         0.8180    3.4110    1.4940 n         1 MOL     -0.507393
    103 C34         0.2880    2.2330    2.1400 c3        1 MOL      0.047137
    104 C35         0.0580    1.0420    1.1700 c         1 MOL      0.126409
    105 O15         0.9850    0.5030    0.6660 o         1 MOL     -0.200803
    106 C36         1.2060    1.6700    3.2510 c3        1 MOL      0.178305
    107 C37         0.6380    0.4550    3.9390 c3        1 MOL     -0.032943
    108 C38         1.5370    2.7530    4.2910 c3        1 MOL     -0.204226
    109 C39        -0.6100    0.6990    4.7980 c3        1 MOL     -0.285655
    110 H46         0.2160    4.2170    1.6380 hn        1 MOL      0.290765
    111 H47        -0.6730    2.5140    2.5730 h1        1 MOL      0.081008
    112 H48         2.1240    1.3980    2.7250 hc        1 MOL      0.017384
    113 H49         1.3500    0.0970    4.6890 hc        1 MOL      0.066175
    114 H50         0.4610   -0.3530    3.2340 hc        1 MOL      0.066175
    115 H51         1.9030    3.6830    3.8440 hc        1 MOL      0.047452
    116 H52         0.6510    2.8850    4.9100 hc        1 MOL      0.047452
    117 H53         2.2990    2.3650    4.9550 hc        1 MOL      0.047452
    118 H54        -1.3110   -0.1230    4.6240 hc        1 MOL      0.067720
    119 H55        -0.3590    0.7630    5.8550 hc        1 MOL      0.067720
    120 H56        -1.0730    1.6250    4.4700 hc        1 MOL      0.067720
    121 N11        -1.2330    0.7130    1.0210 n         1 MOL     -0.230615
    122 C40        -1.6700   -0.4570    0.1280 c3        1 MOL     -0.262820
    123 C41        -3.1730   -0.5320   -0.1260 c         1 MOL      0.703810
    124 O16        -3.4290   -1.2800   -1.0790 o         1 MOL     -0.565797
    125 C42        -1.2920   -1.8430    0.7830 c3        1 MOL      0.211866
    126 O17        -1.8410   -1.9410    2.0620 oh        1 MOL     -0.593185
    127 H57        -1.8170    1.2890    1.6140 hn        1 MOL      0.241937
    128 H58        -1.2040   -0.4180   -0.8610 h1        1 MOL      0.149081
    129 H59        -0.2180   -1.9810    0.8940 h1        1 MOL      0.026537
    130 H60        -1.6730   -2.6650    0.1750 h1        1 MOL      0.026537
    131 H61        -1.4410   -2.6140    2.6040 ho        1 MOL      0.406775
    132 N12        -4.0600    0.0900    0.5700 n         1 MOL     -0.617082
    133 C43        -5.4800    0.0060    0.1630 c3        1 MOL      0.248943
    134 C44        -5.7750    0.4430   -1.2920 c         1 MOL      0.445986
    135 O18        -4.8500    0.9560   -1.9730 o         1 MOL     -0.533682
    136 C45        -6.1920    0.9040    1.2020 c3        1 MOL     -0.368044
    137 H62        -3.7080    0.7850    1.2150 hn        1 MOL      0.337714
    138 H63        -5.8870   -0.9900    0.3130 h1        1 MOL      0.079714
    139 H64        -6.0410    0.5960    2.2350 hc        1 MOL      0.113982
    140 H65        -5.9530    1.9600    1.1070 hc        1 MOL      0.113982
    141 H66        -7.2570    0.6700    1.2120 hc        1 MOL      0.113982
    142 N13        -6.9100    0.1650   -1.8860 n         1 MOL     -0.452407
    143 C46        -8.1560   -0.4080   -1.3790 c3        1 MOL      0.288997
    144 C47        -9.4660    0.2750   -2.0460 c         1 MOL      0.355697
    145 O19        -9.3930    0.7250   -3.1990 o         1 MOL     -0.498118
    146 C48        -8.1560   -1.8610   -1.8250 c3        1 MOL     -0.183923
    147 H67        -7.0560    0.5590   -2.8060 hn        1 MOL      0.289773
    148 H68        -8.2300   -0.3380   -0.2850 h1        1 MOL     -0.024642
    149 H69        -8.1490   -1.8720   -2.9060 hc        1 MOL      0.053250
    150 H70        -7.2350   -2.3350   -1.4980 hc        1 MOL      0.053250
    151 H71        -9.0570   -2.3420   -1.4560 hc        1 MOL      0.053250
    152 N14       -10.6280    0.3580   -1.3660 n         1 MOL     -0.420768
    153 C49       -10.7370    0.3780    0.1000 c3        1 MOL     -0.069859
    154 C50       -10.0040    1.5340    0.7880 c         1 MOL      0.445911
    155 O20        -9.3780    1.4070    1.8050 o         1 MOL     -0.490356
    156 C51       -12.2730    0.4760    0.4260 c3        1 MOL     -0.162366
    157 C52       -13.0470   -0.7860    0.0610 c3        1 MOL     -0.125866
    158 C53       -14.5420   -0.7440    0.4620 c         1 MOL      0.651254
    159 O21       -15.0880   -1.5890    1.2390 o         1 MOL     -0.646981
    160 O22       -15.2200    0.1140   -0.1640 o         1 MOL     -0.646981
    161 H72       -11.4580    0.6830   -1.8340 hn        1 MOL      0.350572
    162 H73       -10.3090   -0.5010    0.5610 h1        1 MOL      0.124016
    163 H74       -12.7200    1.3620   -0.0130 hc        1 MOL      0.079730
    164 H75       -12.2010    0.5990    1.5170 hc        1 MOL      0.079730
    165 H76       -12.6220   -1.7090    0.4550 hc        1 MOL      0.028336
    166 H77       -13.0910   -0.8820   -1.0160 hc        1 MOL      0.028336
    167 N15       -10.1020    2.7150    0.1330 n         1 MOL     -0.316301
    168 C54        -9.4330    3.9430    0.6350 c3        1 MOL     -0.105741
    169 H78        -9.0240    3.7540    1.6280 h1        1 MOL      0.076838
    170 H79        -8.6250    4.2190   -0.0430 h1        1 MOL      0.076838
    171 H80       -10.1570    4.7560    0.6900 h1        1 MOL      0.076838
    172 H81       -10.7880    2.7920   -0.5910 hn        1 MOL      0.274523
    173 Ca1         2.9290    0.1950   -1.0440 Ca        1 MOL      1.669919
    174 O23         3.4900    2.1470   -2.7730 oh        1 MOL     -0.826972
    175 H82         4.4040    2.4060   -2.8290 ho        1 MOL      0.407676
    176 H83         3.0330    2.7600   -3.3500 ho        1 MOL      0.407676
    177 O24         0.9830   -1.9320   -1.7610 oh        1 MOL     -0.826972
    178 H84         1.5730   -1.8570   -2.5090 ho        1 MOL      0.407676
    179 H85         0.1060   -1.9930   -2.1460 ho        1 MOL      0.407676
    180 O25         0.5290    1.0760   -2.2510 oh        1 MOL     -0.826972
    181 H86        -0.3930    0.9670   -2.4660 ho        1 MOL      0.407676
    182 H87         0.7870    1.8610   -2.7300 ho        1 MOL      0.407676
@<TRIPOS>BOND
     1    1    2 1   
     2    1    4 1   
     3    1    5 1   
     4    1    6 1   
     5    2    3 2   
     6    2    7 1   
     7    7    8 1   
     8    7   15 1   
     9    8    9 1   
    10    8   11 1   
    11    8   16 1   
    12    9   10 2   
    13    9   19 1   
    14   11   12 1   
    15   11   17 1   
    16   11   18 1   
    17   12   13 1   
    18   12   14 1   
    19   19   20 1   
    20   19   28 1   
    21   20   21 1   
    22   20   23 1   
    23   20   29 1   
    24   21   22 2   
    25   21   41 1   
    26   23   24 1   
    27   23   30 1   
    28   23   31 1   
    29   24   25 1   
    30   24   32 1   
    31   24   33 1   
    32   25   26 1   
    33   25   34 1   
    34   25   35 1   
    35   26   27 1   
    36   26   36 1   
    37   26   37 1   
    38   27   38 1   
    39   27   39 1   
    40   27   40 1   
    41   41   42 1   
    42   41   49 1   
    43   42   43 1   
    44   42   45 1   
    45   42   50 1   
    46   43   44 2   
    47   43   53 1   
    48   45   46 1   
    49   45   51 1   
    50   45   52 1   
    51   46   47 1   
    52   46   48 1   
    53   53   54 1   
    54   53   57 1   
    55   54   55 1   
    56   54   58 1   
    57   54   59 1   
    58   55   56 2   
    59   55   60 1   
    60   60   61 1   
    61   60   68 1   
    62   61   62 1   
    63   61   64 1   
    64   61   69 1   
    65   62   63 2   
    66   62   74 1   
    67   64   65 1   
    68   64   70 1   
    69   64   71 1   
    70   65   66 1   
    71   65   67 2   
    72   66   72 1   
    73   66   73 1   
    74   74   75 1   
    75   74   78 1   
    76   75   76 1   
    77   75   79 1   
    78   75   80 1   
    79   76   77 2   
    80   76   81 1   
    81   81   82 1   
    82   81   93 1   
    83   82   83 1   
    84   82   85 1   
    85   82   94 1   
    86   83   84 2   
    87   83  102 1   
    88   85   86 1   
    89   85   95 1   
    90   85   96 1   
    91   86   87 ar  
    92   86   88 ar  
    93   87   89 ar  
    94   87   97 1   
    95   88   90 ar  
    96   88   98 1   
    97   89   91 ar  
    98   89   99 1   
    99   90   91 ar  
   100   90  100 1   
   101   91   92 1   
   102   92  101 1   
   103  102  103 1   
   104  102  110 1   
   105  103  104 1   
   106  103  106 1   
   107  103  111 1   
   108  104  105 2   
   109  104  121 1   
   110  106  107 1   
   111  106  108 1   
   112  106  112 1   
   113  107  109 1   
   114  107  113 1   
   115  107  114 1   
   116  108  115 1   
   117  108  116 1   
   118  108  117 1   
   119  109  118 1   
   120  109  119 1   
   121  109  120 1   
   122  121  122 1   
   123  121  127 1   
   124  122  123 1   
   125  122  125 1   
   126  122  128 1   
   127  123  124 2   
   128  123  132 1   
   129  125  126 1   
   130  125  129 1   
   131  125  130 1   
   132  126  131 1   
   133  132  133 1   
   134  132  137 1   
   135  133  134 1   
   136  133  136 1   
   137  133  138 1   
   138  134  135 2   
   139  134  142 1   
   140  136  139 1   
   141  136  140 1   
   142  136  141 1   
   143  142  143 1   
   144  142  147 1   
   145  143  144 1   
   146  143  146 1   
   147  143  148 1   
   148  144  145 2   
   149  144  152 1   
   150  146  149 1   
   151  146  150 1   
   152  146  151 1   
   153  152  153 1   
   154  152  161 1   
   155  153  154 1   
   156  153  156 1   
   157  153  162 1   
   158  154  155 2   
   159  154  167 1   
   160  156  157 1   
   161  156  163 1   
   162  156  164 1   
   163  157  158 1   
   164  157  165 1   
   165  157  166 1   
   166  158  159 1   
   167  158  160 1   
   168  167  168 1   
   169  167  172 1   
   170  168  169 1   
   171  168  170 1   
   172  168  171 1   
   173  174  175 1   
   174  174  176 1   
   175  177  178 1   
   176  177  179 1   
   177  180  181 1   
   178  180  182 1   
@<TRIPOS>SUBSTRUCTURE
     1 MOL         1 TEMP              0 ****  ****    0 ROOT
