@<TRIPOS>MOLECULE
MOL
  195   189     1     0     0
SMALL
resp


@<TRIPOS>ATOM
      1 C1          1.2540    3.2800    2.9730 c3        1 MOL     -0.015720
      2 C2          0.3130    3.4290    1.7060 c         1 MOL      0.575748
      3 O1         -0.3060    2.4710    1.2620 o         1 MOL     -0.506406
      4 H1          0.6500    3.3280    3.8800 hc        1 MOL     -0.017013
      5 H2          1.7700    2.3220    2.9320 hc        1 MOL     -0.017013
      6 H3          1.9860    4.0880    2.9810 hc        1 MOL     -0.017013
      7 N1          0.1790    4.6190    1.0540 n         1 MOL     -0.341201
      8 C3         -0.5040    4.9310   -0.1840 c3        1 MOL      0.314657
      9 C4         -2.0080    4.6190   -0.0020 c         1 MOL      0.423487
     10 O2         -2.5790    4.0390   -0.9210 o         1 MOL     -0.488019
     11 C5          0.3090    4.4790   -1.4130 c3        1 MOL     -0.448206
     12 C6          1.8130    4.8420   -1.3850 c         1 MOL      1.006662
     13 O3          2.2520    5.8020   -0.6890 o         1 MOL     -0.892505
     14 O4          2.6370    4.0470   -1.7850 o         1 MOL     -0.892505
     15 H4          0.7730    5.3860    1.3370 hn        1 MOL      0.192468
     16 H5         -0.4180    6.0050   -0.3180 h1        1 MOL      0.005577
     17 H6         -0.0990    5.0060   -2.2790 hc        1 MOL      0.124516
     18 H7          0.0850    3.4340   -1.6430 hc        1 MOL      0.124516
     19 N2         -2.6280    4.8650    1.1760 n         1 MOL     -0.359171
     20 C7         -4.0620    4.8660    1.3990 c3        1 MOL      0.033726
     21 C8         -4.7470    5.9370    0.5150 c         1 MOL      0.422858
     22 O5         -4.2240    7.0520    0.3310 o         1 MOL     -0.576124
     23 C9         -4.6130    5.0400    2.9060 c3        1 MOL      0.274674
     24 C10        -3.8510    6.0940    3.6920 c3        1 MOL     -0.035382
     25 C11        -4.4880    3.6760    3.5850 c3        1 MOL     -0.240747
     26 C12        -4.5230    6.6580    5.0000 c3        1 MOL     -0.231338
     27 H8         -2.0260    5.2580    1.8810 hn        1 MOL      0.081234
     28 H9         -4.3530    3.8390    1.1700 h1        1 MOL      0.126057
     29 H10        -5.6800    5.2490    2.9120 hc        1 MOL      0.029534
     30 H11        -3.6480    6.9200    3.0130 hc        1 MOL      0.026074
     31 H12        -2.9890    5.5700    4.0910 hc        1 MOL      0.026074
     32 H13        -4.7140    3.7560    4.6490 hc        1 MOL      0.044886
     33 H14        -5.0670    2.9800    2.9830 hc        1 MOL      0.044886
     34 H15        -3.4440    3.3850    3.4340 hc        1 MOL      0.044886
     35 H16        -4.6010    5.8040    5.6770 hc        1 MOL      0.053120
     36 H17        -3.8970    7.4540    5.4050 hc        1 MOL      0.053120
     37 H18        -5.5110    7.0890    4.8180 hc        1 MOL      0.053120
     38 N3         -5.9660    5.7380    0.0220 n         1 MOL     -0.445295
     39 C13        -6.7370    4.4390    0.1720 c3        1 MOL      0.109411
     40 C14        -6.2560    3.3520   -0.7610 c         1 MOL      0.763575
     41 O6         -6.4360    2.2300   -0.3850 o         1 MOL     -0.540064
     42 C15        -8.2160    4.8150   -0.0360 c3        1 MOL     -0.162920
     43 C16        -9.2440    3.7610    0.4290 c         1 MOL      0.661520
     44 O7         -9.0660    3.1980    1.6020 o         1 MOL     -0.681269
     45 O8        -10.2780    3.4520   -0.2470 o         1 MOL     -0.681269
     46 H19        -6.3070    6.5810   -0.4220 hn        1 MOL      0.280574
     47 H20        -6.5680    4.1020    1.1980 h1        1 MOL     -0.029163
     48 H21        -8.4640    5.1150   -1.0530 hc        1 MOL      0.015959
     49 H22        -8.3680    5.6730    0.6260 hc        1 MOL      0.015959
     50 N4         -5.5940    3.6060   -1.9440 n         1 MOL     -0.696137
     51 C17        -4.8630    2.5350   -2.7010 c3        1 MOL      0.067662
     52 C18        -5.7700    1.2950   -3.0050 c         1 MOL      0.410622
     53 O9         -7.0150    1.3760   -3.1580 o         1 MOL     -0.479535
     54 H23        -5.3570    4.5600   -2.2020 hn        1 MOL      0.336557
     55 H24        -3.9570    2.2040   -2.1860 h1        1 MOL      0.064136
     56 H25        -4.4740    2.8190   -3.6790 h1        1 MOL      0.064136
     57 N5         -5.0950    0.1150   -3.0930 n         1 MOL     -0.505251
     58 C19        -5.8070   -1.1810   -3.2700 c3        1 MOL      0.104088
     59 C20        -6.5640   -1.7720   -2.0420 c         1 MOL      0.464023
     60 O10        -7.4940   -2.5180   -2.2750 o         1 MOL     -0.549204
     61 C21        -4.7480   -2.2300   -3.7140 c3        1 MOL      0.023229
     62 C22        -3.4820   -2.3650   -2.8880 c         1 MOL      0.607678
     63 O11        -3.3310   -1.6600   -1.8380 o         1 MOL     -0.674135
     64 O12        -2.6620   -3.3350   -3.1450 o         1 MOL     -0.674135
     65 H26        -4.1050    0.2030   -2.9260 hn        1 MOL      0.294490
     66 H27        -6.5970   -1.0990   -4.0130 h1        1 MOL      0.058231
     67 H28        -4.4030   -1.9950   -4.7220 hc        1 MOL     -0.037174
     68 H29        -5.1900   -3.2100   -3.8450 hc        1 MOL     -0.037174
     69 N6         -6.1680   -1.5020   -0.7590 n         1 MOL     -0.114474
     70 C23        -6.6500   -2.2590    0.4230 c3        1 MOL     -0.458737
     71 C24        -6.1100   -3.6410    0.5730 c         1 MOL      0.600627
     72 O13        -6.6180   -4.3720    1.3890 o         1 MOL     -0.606203
     73 H30        -5.4280   -0.8390   -0.6020 hn        1 MOL      0.229533
     74 H31        -7.7350   -2.2810    0.3570 h1        1 MOL      0.173684
     75 H32        -6.3480   -1.8280    1.3790 h1        1 MOL      0.173684
     76 N7         -5.2180   -4.0260   -0.2720 n         1 MOL     -0.052603
     77 C25        -4.5310   -5.3210   -0.3500 c3        1 MOL      0.083817
     78 C26        -3.9200   -5.8180    0.9710 c         1 MOL      0.472451
     79 O14        -3.8760   -7.0280    1.1720 o         1 MOL     -0.518862
     80 C27        -5.4160   -6.2860   -1.2060 c3        1 MOL     -0.122284
     81 C28        -5.7200   -5.8630   -2.6240 c3        1 MOL      0.076181
     82 C29        -6.4220   -6.9960   -3.4680 c         1 MOL      0.585679
     83 N8         -7.3690   -6.7140   -4.2740 n         1 MOL     -0.733392
     84 O15        -6.1380   -8.1570   -3.4260 o         1 MOL     -0.574172
     85 H33        -4.6510   -3.2790   -0.6530 hn        1 MOL      0.069054
     86 H34        -3.5980   -5.1860   -0.8990 h1        1 MOL      0.100637
     87 H35        -6.3740   -6.3300   -0.6990 hc        1 MOL      0.029240
     88 H36        -4.8240   -7.1920   -1.3410 hc        1 MOL      0.029240
     89 H37        -4.8200   -5.5110   -3.1200 hc        1 MOL     -0.023981
     90 H38        -6.3760   -4.9900   -2.6260 hc        1 MOL     -0.023981
     91 H39        -7.7380   -5.7710   -4.2420 hn        1 MOL      0.338457
     92 H40        -7.5180   -7.3710   -5.0120 hn        1 MOL      0.338457
     93 N9         -3.5550   -4.9000    1.8340 n         1 MOL     -0.399532
     94 C30        -3.0030   -5.0140    3.1940 c3        1 MOL     -0.032978
     95 C31        -1.5920   -4.5040    3.2770 c         1 MOL      0.567464
     96 O16        -0.8110   -4.9260    4.1320 o         1 MOL     -0.580471
     97 C32        -3.8500   -4.3210    4.2490 c3        1 MOL      0.163306
     98 C33        -4.1700   -2.8690    4.0650 c3        1 MOL     -0.290118
     99 C34        -5.1670   -5.0360    4.4840 c3        1 MOL     -0.290118
    100 H41        -3.5430   -3.9690    1.4620 hn        1 MOL      0.246593
    101 H42        -3.0030   -6.0580    3.5340 h1        1 MOL      0.099183
    102 H43        -3.3550   -4.2290    5.2130 hc        1 MOL     -0.008025
    103 H44        -3.2750   -2.2590    3.9510 hc        1 MOL      0.076002
    104 H45        -4.7620   -2.7870    3.1470 hc        1 MOL      0.076002
    105 H46        -4.7750   -2.5080    4.8890 hc        1 MOL      0.076002
    106 H47        -5.0510   -6.1080    4.3480 hc        1 MOL      0.076002
    107 H48        -5.5690   -4.8850    5.4870 hc        1 MOL      0.076002
    108 H49        -5.9430   -4.6950    3.8030 hc        1 MOL      0.076002
    109 N10        -1.2490   -3.4990    2.4490 n         1 MOL     -0.406258
    110 C35        -0.0070   -2.8020    2.3220 c3        1 MOL      0.241924
    111 C36         0.7950   -3.2210    1.0780 c         1 MOL      0.633027
    112 O17         0.3330   -3.9950    0.2420 o         1 MOL     -0.552730
    113 C37        -0.2730   -1.3060    2.2320 c3        1 MOL     -0.085592
    114 C38         0.8840   -0.5260    2.7930 c         1 MOL      0.380525
    115 N11         1.1230   -0.4250    4.0980 n         1 MOL     -0.689718
    116 O18         1.8400   -0.2580    2.1030 o         1 MOL     -0.440010
    117 H50        -1.9430   -3.2460    1.7590 hn        1 MOL      0.194644
    118 H51         0.5530   -3.0180    3.2380 h1        1 MOL      0.020961
    119 H52        -1.1650   -1.1400    2.8420 hc        1 MOL      0.061833
    120 H53        -0.4250   -0.8970    1.2310 hc        1 MOL      0.061833
    121 H54         0.3980   -0.7040    4.7390 hn        1 MOL      0.346234
    122 H55         1.9930    0.0260    4.3370 hn        1 MOL      0.346234
    123 N12         2.0760   -2.8050    0.9760 n         1 MOL     -0.713336
    124 C39         2.9610   -3.3510   -0.0010 c3        1 MOL      0.293996
    125 C40         4.3950   -3.1640    0.3230 c         1 MOL      0.675648
    126 O19         4.7510   -2.1530    0.9330 o         1 MOL     -0.628155
    127 C41         2.6950   -2.9880   -1.4760 c3        1 MOL     -0.088665
    128 C42         3.0890   -1.5930   -1.7940 ca        1 MOL      0.150567
    129 C43         2.4520   -0.4350   -1.2270 ca        1 MOL     -0.221492
    130 C44         4.1600   -1.3630   -2.6780 ca        1 MOL     -0.221492
    131 C45         2.8560    0.8860   -1.5380 ca        1 MOL     -0.161784
    132 C46         4.6260   -0.0460   -3.0050 ca        1 MOL     -0.161784
    133 C47         3.8520    1.0360   -2.5160 ca        1 MOL      0.184586
    134 O20         4.2200    2.3100   -2.7590 oh        1 MOL     -0.548704
    135 H56         2.3880   -1.9750    1.4610 hn        1 MOL      0.334876
    136 H57         2.9110   -4.4450    0.0710 h1        1 MOL      0.028024
    137 H58         1.6790   -3.1480   -1.8110 hc        1 MOL      0.041689
    138 H59         3.2550   -3.7180   -2.0510 hc        1 MOL      0.041689
    139 H60         1.7130   -0.6740   -0.4730 ha        1 MOL      0.137874
    140 H61         4.7820   -2.2050   -2.9400 ha        1 MOL      0.137874
    141 H62         2.4570    1.7370   -1.0020 ha        1 MOL      0.112830
    142 H63         5.5300    0.1520   -3.5640 ha        1 MOL      0.112830
    143 H64         3.6320    2.9810   -2.4180 ho        1 MOL      0.544477
    144 N13         5.2980   -3.9720   -0.2960 n         1 MOL     -0.888224
    145 C48         6.7270   -3.8530   -0.1570 c3        1 MOL      0.527576
    146 C49         7.4620   -3.2890   -1.3500 c         1 MOL      0.428029
    147 O21         7.7670   -4.0590   -2.3190 o         1 MOL     -0.545979
    148 C50         7.2200   -5.1920    0.3330 c3        1 MOL     -0.031720
    149 C51         8.6710   -5.0770    0.7490 c3        1 MOL     -0.136188
    150 C52         9.3310   -6.4430    0.9430 c         1 MOL      0.677289
    151 O22         8.7890   -7.2180    1.8410 o         1 MOL     -0.703145
    152 O23        10.2840   -6.7230    0.1920 o         1 MOL     -0.703145
    153 H65         4.8980   -4.6670   -0.9190 hn        1 MOL      0.360524
    154 H66         6.8920   -3.1830    0.6930 h1        1 MOL      0.020066
    155 H67         7.0120   -6.0540   -0.3020 hc        1 MOL     -0.003209
    156 H68         6.6650   -5.3180    1.2610 hc        1 MOL     -0.003209
    157 H69         8.5790   -4.4680    1.6460 hc        1 MOL      0.008378
    158 H70         9.2700   -4.5880   -0.0250 hc        1 MOL      0.008378
    159 N14         7.8390   -1.9740   -1.3970 n         1 MOL     -0.528233
    160 C53         7.4360   -0.8790   -0.5350 c3        1 MOL     -0.080695
    161 C54         8.1400   -1.0320    0.7620 c         1 MOL      0.702512
    162 O24         9.3070   -1.4320    0.8190 o         1 MOL     -0.590113
    163 C55         7.7220    0.3560   -1.2790 c3        1 MOL      0.105884
    164 C56         7.6060    1.6210   -0.3080 c3        1 MOL     -0.200665
    165 C57         7.7150    2.9360   -1.0760 c         1 MOL      0.578013
    166 O25         6.7060    3.5060   -1.4720 o         1 MOL     -0.652439
    167 O26         8.8290    3.3420   -1.4750 o         1 MOL     -0.652439
    168 H71         8.2130   -1.7130   -2.2980 hn        1 MOL      0.298095
    169 H72         6.3620   -0.9890   -0.3770 h1        1 MOL      0.087137
    170 H73         7.0260    0.5820   -2.0880 hc        1 MOL      0.046523
    171 H74         8.6960    0.3400   -1.7600 hc        1 MOL      0.046523
    172 H75         8.4260    1.6290    0.4130 hc        1 MOL     -0.010647
    173 H76         6.6440    1.6370    0.2080 hc        1 MOL     -0.010647
    174 N15         7.4890   -0.6680    1.8740 n         1 MOL     -0.264200
    175 C58         8.0990   -0.6270    3.1930 c3        1 MOL     -0.311988
    176 H77         7.3230   -0.5000    3.9470 h1        1 MOL      0.109619
    177 H78         8.6320   -1.5600    3.3750 h1        1 MOL      0.109619
    178 H79         8.7970    0.2080    3.2460 h1        1 MOL      0.109619
    179 H80         6.5130   -0.4350    1.8060 hn        1 MOL      0.246523
    180 Ca1         4.8550    5.3770   -0.6380 Ca        1 MOL      1.732334
    181 O27         7.0210    6.9260   -1.2780 oh        1 MOL     -0.834883
    182 H81         7.8210    6.7230   -1.7610 ho        1 MOL      0.396819
    183 H82         7.2220    7.7380   -0.8170 ho        1 MOL      0.396819
    184 O28         4.1450    7.8490   -1.3720 oh        1 MOL     -0.834883
    185 H83         4.5080    8.7240   -1.5120 ho        1 MOL      0.396819
    186 H84         3.2050    7.9690   -1.3910 ho        1 MOL      0.396819
    187 O29         4.2420    3.2100    0.7360 oh        1 MOL     -0.834883
    188 H85         3.9040    2.3190    0.5710 ho        1 MOL      0.396819
    189 H86         4.7100    3.1310    1.5650 ho        1 MOL      0.396819
    190 O30         6.6290    5.2820    1.5300 oh        1 MOL     -0.834883
    191 H87         6.7660    5.9890    2.1560 ho        1 MOL      0.396819
    192 H88         6.8890    4.4860    1.9880 ho        1 MOL      0.396819
    193 O31         4.9140    5.2260   -3.3450 oh        1 MOL     -0.834883
    194 H89         4.2080    4.7260   -3.7550 ho        1 MOL      0.396819
    195 H90         5.2300    5.8040   -4.0350 ho        1 MOL      0.396819
@<TRIPOS>BOND
     1    1    2 1   
     2    1    4 1   
     3    1    5 1   
     4    1    6 1   
     5    2    3 2   
     6    2    7 1   
     7    7    8 1   
     8    7   15 1   
     9    8    9 1   
    10    8   11 1   
    11    8   16 1   
    12    9   10 2   
    13    9   19 1   
    14   11   12 1   
    15   11   17 1   
    16   11   18 1   
    17   12   13 1   
    18   12   14 1   
    19   19   20 1   
    20   19   27 1   
    21   20   21 1   
    22   20   23 1   
    23   20   28 1   
    24   21   22 2   
    25   21   38 1   
    26   23   24 1   
    27   23   25 1   
    28   23   29 1   
    29   24   26 1   
    30   24   30 1   
    31   24   31 1   
    32   25   32 1   
    33   25   33 1   
    34   25   34 1   
    35   26   35 1   
    36   26   36 1   
    37   26   37 1   
    38   38   39 1   
    39   38   46 1   
    40   39   40 1   
    41   39   42 1   
    42   39   47 1   
    43   40   41 2   
    44   40   50 1   
    45   42   43 1   
    46   42   48 1   
    47   42   49 1   
    48   43   44 1   
    49   43   45 1   
    50   50   51 1   
    51   50   54 1   
    52   51   52 1   
    53   51   55 1   
    54   51   56 1   
    55   52   53 2   
    56   52   57 1   
    57   57   58 1   
    58   57   65 1   
    59   58   59 1   
    60   58   61 1   
    61   58   66 1   
    62   59   60 2   
    63   59   69 1   
    64   61   62 1   
    65   61   67 1   
    66   61   68 1   
    67   62   63 1   
    68   62   64 1   
    69   69   70 1   
    70   69   73 1   
    71   70   71 1   
    72   70   74 1   
    73   70   75 1   
    74   71   72 2   
    75   71   76 1   
    76   76   77 1   
    77   76   85 1   
    78   77   78 1   
    79   77   80 1   
    80   77   86 1   
    81   78   79 2   
    82   78   93 1   
    83   80   81 1   
    84   80   87 1   
    85   80   88 1   
    86   81   82 1   
    87   81   89 1   
    88   81   90 1   
    89   82   83 1   
    90   82   84 2   
    91   83   91 1   
    92   83   92 1   
    93   93   94 1   
    94   93  100 1   
    95   94   95 1   
    96   94   97 1   
    97   94  101 1   
    98   95   96 2   
    99   95  109 1   
   100   97   98 1   
   101   97   99 1   
   102   97  102 1   
   103   98  103 1   
   104   98  104 1   
   105   98  105 1   
   106   99  106 1   
   107   99  107 1   
   108   99  108 1   
   109  109  110 1   
   110  109  117 1   
   111  110  111 1   
   112  110  113 1   
   113  110  118 1   
   114  111  112 2   
   115  111  123 1   
   116  113  114 1   
   117  113  119 1   
   118  113  120 1   
   119  114  115 1   
   120  114  116 2   
   121  115  121 1   
   122  115  122 1   
   123  123  124 1   
   124  123  135 1   
   125  124  125 1   
   126  124  127 1   
   127  124  136 1   
   128  125  126 2   
   129  125  144 1   
   130  127  128 1   
   131  127  137 1   
   132  127  138 1   
   133  128  129 ar  
   134  128  130 ar  
   135  129  131 ar  
   136  129  139 1   
   137  130  132 ar  
   138  130  140 1   
   139  131  133 ar  
   140  131  141 1   
   141  132  133 ar  
   142  132  142 1   
   143  133  134 1   
   144  134  143 1   
   145  144  145 1   
   146  144  153 1   
   147  145  146 1   
   148  145  148 1   
   149  145  154 1   
   150  146  147 2   
   151  146  159 1   
   152  148  149 1   
   153  148  155 1   
   154  148  156 1   
   155  149  150 1   
   156  149  157 1   
   157  149  158 1   
   158  150  151 1   
   159  150  152 1   
   160  159  160 1   
   161  159  168 1   
   162  160  161 1   
   163  160  163 1   
   164  160  169 1   
   165  161  162 2   
   166  161  174 1   
   167  163  164 1   
   168  163  170 1   
   169  163  171 1   
   170  164  165 1   
   171  164  172 1   
   172  164  173 1   
   173  165  166 1   
   174  165  167 1   
   175  174  175 1   
   176  174  179 1   
   177  175  176 1   
   178  175  177 1   
   179  175  178 1   
   180  181  182 1   
   181  181  183 1   
   182  184  185 1   
   183  184  186 1   
   184  187  188 1   
   185  187  189 1   
   186  190  191 1   
   187  190  192 1   
   188  193  194 1   
   189  193  195 1   
@<TRIPOS>SUBSTRUCTURE
     1 MOL         1 TEMP              0 ****  ****    0 ROOT
