@<TRIPOS>MOLECULE
MOL
  188   182     1     0     0
SMALL
resp


@<TRIPOS>ATOM
      1 C1          6.9650    5.4900    1.5130 c3        1 MOL     -0.324106
      2 C2          7.9730    4.2970    1.7390 c         1 MOL      0.668931
      3 O1          7.9500    3.7040    2.8080 o         1 MOL     -0.567641
      4 H1          6.3060    5.5760    2.3760 hc        1 MOL      0.076236
      5 H2          7.5230    6.4180    1.3880 hc        1 MOL      0.076236
      6 H3          6.3700    5.2990    0.6200 hc        1 MOL      0.076236
      7 N1          8.8440    4.0440    0.7740 n         1 MOL     -0.541167
      8 C3          9.9490    3.0280    0.7170 c3        1 MOL      0.229321
      9 C4          9.3820    1.7820    0.0010 c         1 MOL      0.472640
     10 O2          9.4720    1.5490   -1.2300 o         1 MOL     -0.535578
     11 C5         11.1550    3.6230    0.0800 c3        1 MOL     -0.137474
     12 C6         12.4720    2.7900    0.1980 c         1 MOL      0.689896
     13 O3         13.4100    3.2410   -0.4910 o         1 MOL     -0.698689
     14 O4         12.5820    1.7690    0.8930 o         1 MOL     -0.698689
     15 H4          8.7060    4.4950   -0.1250 hn        1 MOL      0.289104
     16 H5         10.2710    2.7400    1.7060 h1        1 MOL      0.038069
     17 H6         11.2790    4.6050    0.5400 hc        1 MOL      0.011160
     18 H7         10.9440    3.8570   -0.9560 hc        1 MOL      0.011160
     19 N2          8.8550    0.9330    0.8840 n         1 MOL     -0.603902
     20 C7          8.1900   -0.3650    0.6790 c3        1 MOL      0.318961
     21 C8          6.8790   -0.4400    1.3970 c         1 MOL      0.555763
     22 O5          6.6550    0.1400    2.4620 o         1 MOL     -0.503294
     23 C9          9.1160   -1.5390    1.1660 c3        1 MOL     -0.176112
     24 C10        10.4100   -1.8520    0.2840 c3        1 MOL      0.071856
     25 C11        11.0300   -3.0610    0.9220 c3        1 MOL     -0.343213
     26 C12        12.3290   -3.3810    0.2350 c3        1 MOL     -0.065370
     27 N3         12.0820   -3.4740   -1.2450 n4        1 MOL     -0.411598
     28 H8          8.9550    1.1760    1.8690 hn        1 MOL      0.297362
     29 H9          7.9720   -0.5420   -0.3710 h1        1 MOL      0.011401
     30 H10         8.4870   -2.4300    1.1140 hc        1 MOL      0.049209
     31 H11         9.2040   -1.4070    2.2470 hc        1 MOL      0.049209
     32 H12        10.9960   -0.9420    0.4130 hc        1 MOL      0.043630
     33 H13        10.0900   -1.9400   -0.7560 hc        1 MOL      0.043630
     34 H14        10.3590   -3.9110    0.8920 hc        1 MOL      0.142306
     35 H15        11.2810   -2.7630    1.9420 hc        1 MOL      0.142306
     36 H16        12.8360   -4.2370    0.6780 hx        1 MOL      0.160478
     37 H17        12.9560   -2.5010    0.4090 hx        1 MOL      0.160478
     38 H18        12.9630   -3.5550   -1.7320 hn        1 MOL      0.331784
     39 H19        11.5950   -4.3460   -1.4250 hn        1 MOL      0.331784
     40 H20        11.5330   -2.7170   -1.5990 hn        1 MOL      0.331784
     41 N4          6.0590   -1.3090    0.8380 n         1 MOL     -0.519592
     42 C13         4.6790   -1.5320    1.3320 c3        1 MOL      0.048287
     43 C14         4.2240   -2.9370    0.9750 c         1 MOL      0.618095
     44 O6          4.5430   -3.4410   -0.0940 o         1 MOL     -0.486008
     45 C15         3.7470   -0.4690    0.8130 c3        1 MOL     -0.109811
     46 C16         2.3250   -0.7340    1.2670 c         1 MOL      0.279162
     47 O7          1.6350   -1.5210    0.6400 o         1 MOL     -0.533016
     48 O8          1.8640   -0.1230    2.2720 o         1 MOL     -0.533016
     49 H21         6.2360   -1.7940   -0.0340 hn        1 MOL      0.281368
     50 H22         4.5850   -1.4410    2.4080 h1        1 MOL      0.062831
     51 H23         3.8630   -0.4450   -0.2740 hc        1 MOL      0.074969
     52 H24         4.1500    0.4730    1.1800 hc        1 MOL      0.074969
     53 N5          3.3490   -3.5450    1.7970 n         1 MOL     -0.566648
     54 C17         3.0620   -4.9840    1.6570 c3        1 MOL     -0.091222
     55 C18         2.2150   -5.3180    0.3530 c         1 MOL      0.418727
     56 O9          2.1260   -6.4110   -0.1580 o         1 MOL     -0.521244
     57 H25         3.0600   -3.0660    2.6450 hn        1 MOL      0.368315
     58 H26         2.4730   -5.4470    2.4510 h1        1 MOL      0.120042
     59 H27         3.9740   -5.5750    1.7680 h1        1 MOL      0.120042
     60 N6          1.4390   -4.2840   -0.1110 n         1 MOL      0.025359
     61 C19         0.6840   -4.3200   -1.2750 c3        1 MOL      0.094197
     62 C20         1.2070   -3.2110   -2.2590 c         1 MOL      0.312806
     63 O10         0.4810   -2.8670   -3.2390 o         1 MOL     -0.505166
     64 C21        -0.7630   -4.5650   -1.0340 c3        1 MOL     -0.272168
     65 C22        -1.5080   -3.3520   -0.5340 c         1 MOL      0.769751
     66 N7         -2.8040   -3.5180   -0.4200 n         1 MOL     -0.684705
     67 O11        -0.9530   -2.3020   -0.1950 o         1 MOL     -0.691737
     68 H28         1.5730   -3.4660    0.4620 hn        1 MOL     -0.157571
     69 H29         1.0100   -5.2430   -1.7540 h1        1 MOL      0.093786
     70 H30        -0.8090   -5.3610   -0.2760 hc        1 MOL      0.090572
     71 H31        -1.1850   -4.8420   -1.9970 hc        1 MOL      0.090572
     72 H32        -3.2080   -4.4140   -0.6890 hn        1 MOL      0.335298
     73 H33        -3.3900   -2.7570   -0.1190 hn        1 MOL      0.335298
     74 N8          2.4210   -2.5790   -2.0660 n         1 MOL     -0.063294
     75 C23         3.0660   -1.5390   -2.8590 c3        1 MOL     -0.263337
     76 C24         2.3390   -0.1950   -2.8880 c         1 MOL      0.682531
     77 O12         2.6360    0.5540   -3.8050 o         1 MOL     -0.549427
     78 H34         2.9110   -2.7970   -1.2070 hn        1 MOL      0.086632
     79 H35         3.0320   -1.9250   -3.8780 h1        1 MOL      0.121443
     80 H36         4.1100   -1.3840   -2.5820 h1        1 MOL      0.121443
     81 N9          1.3600    0.1050   -1.9510 n         1 MOL     -0.665433
     82 C25         0.7100    1.4630   -1.9760 c3        1 MOL      0.286495
     83 C26        -0.7000    1.3020   -1.4010 c         1 MOL      0.284045
     84 O13        -0.8290    0.5150   -0.4700 o         1 MOL     -0.444805
     85 C27         1.6510    2.5070   -1.3270 c3        1 MOL     -0.289319
     86 C28         0.9090    3.8590   -1.2930 ca        1 MOL      0.050094
     87 C29         0.5860    4.5640   -2.4770 ca        1 MOL     -0.108315
     88 C30         0.5650    4.5170   -0.1210 ca        1 MOL     -0.108315
     89 C31        -0.2860    5.7470   -2.4280 ca        1 MOL     -0.359552
     90 C32        -0.1520    5.7430   -0.0440 ca        1 MOL     -0.359552
     91 C33        -0.5950    6.3570   -1.1990 ca        1 MOL      0.489450
     92 O14        -1.2730    7.5080   -1.1300 oh        1 MOL     -0.546322
     93 H37         1.1800   -0.5920   -1.2510 hn        1 MOL      0.450667
     94 H38         0.5260    1.8470   -2.9780 h1        1 MOL      0.024475
     95 H39         2.5900    2.7050   -1.8390 hc        1 MOL      0.124085
     96 H40         1.7600    2.2200   -0.2730 hc        1 MOL      0.124085
     97 H41         0.9330    4.2020   -3.4360 ha        1 MOL      0.127276
     98 H42         0.8070    4.0110    0.8010 ha        1 MOL      0.127276
     99 H43        -0.5710    6.2150   -3.3530 ha        1 MOL      0.168691
    100 H44        -0.5390    6.1070    0.8890 ha        1 MOL      0.168691
    101 H45        -1.3690    7.9360   -0.2730 ho        1 MOL      0.409487
    102 N10        -1.7440    2.0030   -1.9020 n         1 MOL     -0.236473
    103 C34        -3.0320    1.7280   -1.3380 c3        1 MOL      0.049223
    104 C35        -3.5050    0.2800   -1.5700 c         1 MOL      0.012524
    105 O15        -4.0590   -0.3560   -0.6310 o         1 MOL     -0.365429
    106 C36        -4.0330    2.8230   -1.8780 c3        1 MOL      0.086372
    107 C37        -3.6180    4.2380   -1.4140 c3        1 MOL     -0.069780
    108 C38        -5.5280    2.5180   -1.5610 c3        1 MOL     -0.402943
    109 C39        -3.2180    4.3830    0.0640 c3        1 MOL     -0.000655
    110 H46        -1.5860    2.5910   -2.7050 hn        1 MOL      0.225907
    111 H47        -2.9430    1.8190   -0.2580 h1        1 MOL      0.122522
    112 H48        -3.9460    2.8120   -2.9650 hc        1 MOL     -0.003583
    113 H49        -4.5360    4.8170   -1.5210 hc        1 MOL      0.044662
    114 H50        -2.9380    4.7090   -2.1240 hc        1 MOL      0.044662
    115 H51        -5.8590    1.7440   -2.2530 hc        1 MOL      0.117149
    116 H52        -5.6400    2.1320   -0.5510 hc        1 MOL      0.117149
    117 H53        -6.0900    3.4530   -1.6100 hc        1 MOL      0.117149
    118 H54        -3.9800    4.0060    0.7540 hc        1 MOL      0.000017
    119 H55        -2.2550    3.8720    0.1690 hc        1 MOL      0.000017
    120 H56        -3.0690    5.4270    0.3420 hc        1 MOL      0.000017
    121 N11        -3.2590   -0.2360   -2.7350 n         1 MOL      0.080013
    122 C40        -3.6020   -1.5830   -3.1880 c3        1 MOL     -0.177673
    123 C41        -5.0730   -1.7930   -3.4540 c         1 MOL      0.657591
    124 O16        -5.5360   -2.9520   -3.4300 o         1 MOL     -0.531665
    125 C42        -2.7660   -1.9380   -4.4390 c3        1 MOL      0.197022
    126 O17        -3.2080   -1.2390   -5.5780 oh        1 MOL     -0.648475
    127 H57        -2.7610    0.3620   -3.3730 hn        1 MOL      0.198751
    128 H58        -3.1940   -2.2250   -2.3910 h1        1 MOL      0.048969
    129 H59        -2.9970   -2.9760   -4.6840 h1        1 MOL      0.038950
    130 H60        -1.6860   -1.8330   -4.4100 h1        1 MOL      0.038950
    131 H61        -3.1120   -1.8880   -6.2870 ho        1 MOL      0.432616
    132 N12        -5.8160   -0.6780   -3.5980 n         1 MOL     -0.562614
    133 C43        -7.2820   -0.5410   -3.3980 c3        1 MOL      0.240039
    134 C44        -7.8630   -0.8950   -1.9890 c         1 MOL      0.495909
    135 O18        -9.0720   -1.0030   -1.8200 o         1 MOL     -0.525964
    136 C45        -8.0550   -1.1840   -4.5770 c3        1 MOL     -0.520535
    137 H62        -5.2710    0.1450   -3.8160 hn        1 MOL      0.301245
    138 H63        -7.5690    0.5100   -3.5060 h1        1 MOL      0.073042
    139 H64        -7.6610   -0.9320   -5.5610 hc        1 MOL      0.151740
    140 H65        -8.0820   -2.2790   -4.5460 hc        1 MOL      0.151740
    141 H66        -9.0780   -0.8290   -4.4880 hc        1 MOL      0.151740
    142 N13        -7.0360   -1.0390   -0.9150 n         1 MOL     -0.349656
    143 C46        -7.5350   -1.3560    0.4180 c3        1 MOL      0.122828
    144 C47        -8.3000   -0.2240    1.0190 c         1 MOL      0.636582
    145 O19        -7.7820    0.8910    0.9850 o         1 MOL     -0.487003
    146 C48        -6.4240   -1.7000    1.3260 c3        1 MOL     -0.146207
    147 H67        -6.0790   -0.7110   -1.0210 hn        1 MOL      0.128779
    148 H68        -8.1370   -2.2510    0.2840 h1        1 MOL      0.033771
    149 H69        -5.7140   -0.8960    1.5320 hc        1 MOL      0.028676
    150 H70        -6.7750   -2.0640    2.2930 hc        1 MOL      0.028676
    151 H71        -5.7340   -2.4690    0.9950 hc        1 MOL      0.028676
    152 N14        -9.4700   -0.4530    1.5400 n         1 MOL     -0.542723
    153 C49       -10.3520    0.5200    2.1870 c3        1 MOL     -0.241309
    154 C50       -10.5700    1.7450    1.2070 c         1 MOL      0.505268
    155 O20       -10.7560    2.8530    1.6810 o         1 MOL     -0.487978
    156 C51        -9.7090    0.8650    3.5730 c3        1 MOL      0.339963
    157 C52        -9.5240   -0.3400    4.5150 c3        1 MOL     -0.295242
    158 C53        -9.2290    0.0030    6.0450 c         1 MOL      0.675385
    159 O21        -8.0360    0.1460    6.3990 o         1 MOL     -0.659629
    160 O22       -10.1860    0.2140    6.8250 o         1 MOL     -0.659629
    161 H72        -9.7750   -1.4040    1.6910 hn        1 MOL      0.332785
    162 H73       -11.3490    0.1000    2.3270 h1        1 MOL      0.151661
    163 H74       -10.2720    1.6430    4.0960 hc        1 MOL     -0.026685
    164 H75        -8.7390    1.3310    3.4110 hc        1 MOL     -0.026685
    165 H76        -8.8760   -1.0840    4.0430 hc        1 MOL      0.022039
    166 H77       -10.5080   -0.8080    4.5690 hc        1 MOL      0.022039
    167 N15       -10.5720    1.5730   -0.1710 n         1 MOL     -0.331473
    168 C54       -10.5450    2.6350   -1.1680 c3        1 MOL     -0.169529
    169 H78       -11.3080    3.3770   -0.9290 h1        1 MOL      0.090688
    170 H79        -9.5640    3.1100   -1.1680 h1        1 MOL      0.090688
    171 H80       -10.7450    2.2140   -2.1530 h1        1 MOL      0.090688
    172 H81       -10.2180    0.6880   -0.5070 hn        1 MOL      0.223505
    173 Ca1        -0.7010   -0.9380    1.8800 Ca        1 MOL      1.813107
    174 O23        -2.2550   -3.0830    3.0410 oh        1 MOL     -0.852843
    175 H82        -2.7380   -3.8930    2.8870 ho        1 MOL      0.406643
    176 H83        -2.2830   -2.9690    3.9960 ho        1 MOL      0.406643
    177 O24         0.4980   -3.2130    2.6890 oh        1 MOL     -0.852843
    178 H84         1.1140   -3.2620    3.4150 ho        1 MOL      0.406643
    179 H85         0.3110   -4.1290    2.4620 ho        1 MOL      0.406643
    180 O25        -3.1310    0.1630    1.9080 oh        1 MOL     -0.852843
    181 H86        -3.5780    0.8840    2.3600 ho        1 MOL      0.406643
    182 H87        -3.7530   -0.1420    1.2490 ho        1 MOL      0.406643
    183 O26        -0.5050    1.5770    2.7400 oh        1 MOL     -0.852843
    184 H88        -1.0520    2.1580    3.2750 ho        1 MOL      0.406643
    185 H89         0.3580    1.9830    2.7550 ho        1 MOL      0.406643
    186 O27        -0.5020   -0.9990    4.4330 oh        1 MOL     -0.852843
    187 H90        -1.1330   -1.5580    4.8970 ho        1 MOL      0.406643
    188 H91         0.0590   -0.6440    5.1170 ho        1 MOL      0.406643
@<TRIPOS>BOND
     1    1    2 1   
     2    1    4 1   
     3    1    5 1   
     4    1    6 1   
     5    2    3 2   
     6    2    7 1   
     7    7    8 1   
     8    7   15 1   
     9    8    9 1   
    10    8   11 1   
    11    8   16 1   
    12    9   10 2   
    13    9   19 1   
    14   11   12 1   
    15   11   17 1   
    16   11   18 1   
    17   12   13 1   
    18   12   14 1   
    19   19   20 1   
    20   19   28 1   
    21   20   21 1   
    22   20   23 1   
    23   20   29 1   
    24   21   22 2   
    25   21   41 1   
    26   23   24 1   
    27   23   30 1   
    28   23   31 1   
    29   24   25 1   
    30   24   32 1   
    31   24   33 1   
    32   25   26 1   
    33   25   34 1   
    34   25   35 1   
    35   26   27 1   
    36   26   36 1   
    37   26   37 1   
    38   27   38 1   
    39   27   39 1   
    40   27   40 1   
    41   41   42 1   
    42   41   49 1   
    43   42   43 1   
    44   42   45 1   
    45   42   50 1   
    46   43   44 2   
    47   43   53 1   
    48   45   46 1   
    49   45   51 1   
    50   45   52 1   
    51   46   47 1   
    52   46   48 1   
    53   53   54 1   
    54   53   57 1   
    55   54   55 1   
    56   54   58 1   
    57   54   59 1   
    58   55   56 2   
    59   55   60 1   
    60   60   61 1   
    61   60   68 1   
    62   61   62 1   
    63   61   64 1   
    64   61   69 1   
    65   62   63 2   
    66   62   74 1   
    67   64   65 1   
    68   64   70 1   
    69   64   71 1   
    70   65   66 1   
    71   65   67 2   
    72   66   72 1   
    73   66   73 1   
    74   74   75 1   
    75   74   78 1   
    76   75   76 1   
    77   75   79 1   
    78   75   80 1   
    79   76   77 2   
    80   76   81 1   
    81   81   82 1   
    82   81   93 1   
    83   82   83 1   
    84   82   85 1   
    85   82   94 1   
    86   83   84 2   
    87   83  102 1   
    88   85   86 1   
    89   85   95 1   
    90   85   96 1   
    91   86   87 ar  
    92   86   88 ar  
    93   87   89 ar  
    94   87   97 1   
    95   88   90 ar  
    96   88   98 1   
    97   89   91 ar  
    98   89   99 1   
    99   90   91 ar  
   100   90  100 1   
   101   91   92 1   
   102   92  101 1   
   103  102  103 1   
   104  102  110 1   
   105  103  104 1   
   106  103  106 1   
   107  103  111 1   
   108  104  105 2   
   109  104  121 1   
   110  106  107 1   
   111  106  108 1   
   112  106  112 1   
   113  107  109 1   
   114  107  113 1   
   115  107  114 1   
   116  108  115 1   
   117  108  116 1   
   118  108  117 1   
   119  109  118 1   
   120  109  119 1   
   121  109  120 1   
   122  121  122 1   
   123  121  127 1   
   124  122  123 1   
   125  122  125 1   
   126  122  128 1   
   127  123  124 2   
   128  123  132 1   
   129  125  126 1   
   130  125  129 1   
   131  125  130 1   
   132  126  131 1   
   133  132  133 1   
   134  132  137 1   
   135  133  134 1   
   136  133  136 1   
   137  133  138 1   
   138  134  135 2   
   139  134  142 1   
   140  136  139 1   
   141  136  140 1   
   142  136  141 1   
   143  142  143 1   
   144  142  147 1   
   145  143  144 1   
   146  143  146 1   
   147  143  148 1   
   148  144  145 2   
   149  144  152 1   
   150  146  149 1   
   151  146  150 1   
   152  146  151 1   
   153  152  153 1   
   154  152  161 1   
   155  153  154 1   
   156  153  156 1   
   157  153  162 1   
   158  154  155 2   
   159  154  167 1   
   160  156  157 1   
   161  156  163 1   
   162  156  164 1   
   163  157  158 1   
   164  157  165 1   
   165  157  166 1   
   166  158  159 1   
   167  158  160 1   
   168  167  168 1   
   169  167  172 1   
   170  168  169 1   
   171  168  170 1   
   172  168  171 1   
   173  174  175 1   
   174  174  176 1   
   175  177  178 1   
   176  177  179 1   
   177  180  181 1   
   178  180  182 1   
   179  183  184 1   
   180  183  185 1   
   181  186  187 1   
   182  186  188 1   
@<TRIPOS>SUBSTRUCTURE
     1 MOL         1 TEMP              0 ****  ****    0 ROOT
