@<TRIPOS>MOLECULE
MOL
  178   175     1     0     0
SMALL
resp


@<TRIPOS>ATOM
      1 C1         11.3290   -6.8930    0.1510 c3        1 MOL     -0.308576
      2 C2         10.5400   -5.6630   -0.2560 c         1 MOL      0.628644
      3 O1          9.5360   -5.8300   -0.9340 o         1 MOL     -0.567484
      4 H1         10.9580   -7.2620    1.1070 hc        1 MOL      0.068934
      5 H2         11.2110   -7.6680   -0.6070 hc        1 MOL      0.068934
      6 H3         12.3830   -6.6350    0.2450 hc        1 MOL      0.068934
      7 N1         10.7830   -4.4700    0.1810 n         1 MOL     -0.431628
      8 C3         11.6290   -3.9200    1.2460 c3        1 MOL      0.088827
      9 C4         12.6970   -2.8860    0.8040 c         1 MOL      0.412577
     10 O2         13.7190   -2.6950    1.4100 o         1 MOL     -0.537008
     11 C5         10.7110   -3.3950    2.3850 c3        1 MOL     -0.030058
     12 C6          9.7430   -2.3930    1.9850 c         1 MOL      0.485046
     13 O3          8.5220   -2.7220    1.8800 o         1 MOL     -0.666205
     14 O4         10.1510   -1.2910    1.4640 o         1 MOL     -0.666205
     15 H4         10.2240   -3.8100   -0.3270 hn        1 MOL      0.364788
     16 H5         12.1150   -4.7830    1.6930 h1        1 MOL      0.038253
     17 H6         11.3390   -2.9430    3.1550 hc        1 MOL      0.017927
     18 H7         10.2780   -4.2700    2.8770 hc        1 MOL      0.017927
     19 N2         12.4300   -2.1910   -0.3260 n         1 MOL     -0.238678
     20 C7         13.3850   -1.3800   -1.0730 c3        1 MOL      0.330506
     21 C8         12.6150   -0.3730   -1.8930 c         1 MOL      0.389611
     22 O5         13.1360    0.0630   -2.9300 o         1 MOL     -0.541086
     23 C9         14.3490   -2.3420   -1.8210 c3        1 MOL     -0.283014
     24 H8         11.5640   -2.3460   -0.8190 hn        1 MOL      0.089783
     25 H9         13.9710   -0.7910   -0.3730 h1        1 MOL     -0.010241
     26 H10        13.7690   -2.9790   -2.4920 hc        1 MOL      0.068043
     27 H11        15.0300   -1.8110   -2.4950 hc        1 MOL      0.068043
     28 H12        14.9580   -2.9560   -1.1620 hc        1 MOL      0.068043
     29 N3         11.3440   -0.1270   -1.5110 n         1 MOL     -0.308506
     30 C10        10.2900    0.4060   -2.3590 c3        1 MOL      0.202851
     31 C11         9.3510    1.3300   -1.5710 c         1 MOL      0.501507
     32 O6          9.4020    1.2720   -0.3540 o         1 MOL     -0.548465
     33 C12         9.5450   -0.7830   -2.9760 c3        1 MOL     -0.325657
     34 C13         8.9550   -1.6610   -1.8470 c         1 MOL      0.874883
     35 O7          9.5130   -2.7360   -1.5690 o         1 MOL     -0.722905
     36 O8          7.9410   -1.2980   -1.1640 o         1 MOL     -0.722905
     37 H13        11.1270   -0.5590   -0.6330 hn        1 MOL      0.132814
     38 H14        10.7770    0.9860   -3.1470 h1        1 MOL      0.010787
     39 H15        10.1520   -1.4550   -3.5870 hc        1 MOL      0.077825
     40 H16         8.6920   -0.4530   -3.5790 hc        1 MOL      0.077825
     41 N4          8.4960    2.1250   -2.3320 n         1 MOL     -0.506554
     42 C14         7.5710    3.0950   -1.8240 c3        1 MOL     -0.097295
     43 C15         6.4840    2.6590   -0.8690 c         1 MOL      0.491554
     44 O9          6.2530    1.4380   -0.7490 o         1 MOL     -0.480857
     45 H17         8.5110    2.0940   -3.3400 hn        1 MOL      0.337302
     46 H18         7.1280    3.4170   -2.7710 h1        1 MOL      0.106914
     47 H19         8.1160    3.9820   -1.5060 h1        1 MOL      0.106914
     48 N5          5.7740    3.5760   -0.2990 n         1 MOL     -0.502664
     49 C16         4.7370    3.2670    0.6760 c3        1 MOL      0.281612
     50 C17         3.4320    3.8980    0.3460 c         1 MOL      0.600537
     51 O10         3.3130    4.8370   -0.4300 o         1 MOL     -0.513108
     52 C18         5.1700    3.7800    2.0410 c3        1 MOL     -0.075089
     53 C19         6.3240    2.9870    2.6570 c         1 MOL      0.557601
     54 N6          6.9880    3.4000    3.6460 n         1 MOL     -0.613589
     55 O11         6.5090    1.8590    2.2630 o         1 MOL     -0.571825
     56 H20         5.9710    4.5150   -0.5960 hn        1 MOL      0.265678
     57 H21         4.5990    2.1970    0.7970 h1        1 MOL      0.005285
     58 H22         4.3100    3.7420    2.6980 hc        1 MOL      0.012100
     59 H23         5.4820    4.8120    1.9200 hc        1 MOL      0.012100
     60 H24         6.8760    4.3560    3.9500 hn        1 MOL      0.312444
     61 H25         7.7490    2.8200    3.9820 hn        1 MOL      0.312444
     62 N7          2.3090    3.3370    0.9300 n         1 MOL     -0.698610
     63 C20         0.9470    3.7740    0.8560 c3        1 MOL      0.106635
     64 C21         0.4060    3.7220   -0.5600 c         1 MOL      0.696498
     65 O12         0.9390    3.1420   -1.4520 o         1 MOL     -0.520567
     66 H26         2.4300    2.4800    1.4430 hn        1 MOL      0.359135
     67 H27         0.9890    4.7820    1.2850 h1        1 MOL      0.080276
     68 H28         0.3110    3.1740    1.4980 h1        1 MOL      0.080276
     69 N8         -0.8020    4.3050   -0.8020 n         1 MOL     -0.622143
     70 C22        -1.5710    5.1340    0.1490 c3        1 MOL     -0.026026
     71 C23        -2.9500    4.5480    0.4150 c         1 MOL      0.474507
     72 O13        -3.5480    4.8510    1.4700 o         1 MOL     -0.568723
     73 C24        -1.7800    6.5940   -0.2620 c3        1 MOL      0.419587
     74 C25        -0.4820    7.3280   -0.5560 c3        1 MOL     -0.568499
     75 O14        -2.4140    6.5410   -1.5100 oh        1 MOL     -0.604164
     76 H29        -1.2330    4.0850   -1.6890 hn        1 MOL      0.369764
     77 H30        -1.0420    5.2100    1.0970 h1        1 MOL      0.039518
     78 H31        -2.3260    7.2250    0.4340 h1        1 MOL     -0.001744
     79 H32        -3.2860    6.9480   -1.4550 ho        1 MOL      0.398879
     80 H33         0.1880    7.2530    0.2930 hc        1 MOL      0.142824
     81 H34         0.0540    6.7410   -1.3100 hc        1 MOL      0.142824
     82 H35        -0.8300    8.3250   -0.8400 hc        1 MOL      0.142824
     83 N9         -3.4110    3.5530   -0.3920 n         1 MOL     -0.314361
     84 C26        -4.7860    2.9910   -0.3490 c3        1 MOL      0.210643
     85 C27        -4.5810    1.4460   -0.2860 c         1 MOL      0.283528
     86 O15        -3.7190    0.9120   -0.9780 o         1 MOL     -0.493501
     87 C28        -5.6080    3.4660   -1.6250 c3        1 MOL      0.153593
     88 C29        -5.8770    5.0250   -1.5130 c3        1 MOL     -0.034216
     89 C30        -6.8760    2.6900   -1.9320 c3        1 MOL     -0.216351
     90 C31        -6.7030    5.5610   -2.7050 c3        1 MOL     -0.271298
     91 H36        -2.8540    3.4180   -1.2300 hn        1 MOL      0.188907
     92 H37        -5.2710    3.3600    0.5590 h1        1 MOL      0.020224
     93 H38        -4.9450    3.3070   -2.4840 hc        1 MOL      0.027148
     94 H39        -4.8770    5.4500   -1.4630 hc        1 MOL     -0.007639
     95 H40        -6.4100    5.3020   -0.6030 hc        1 MOL     -0.007639
     96 H41        -7.1540    2.9460   -2.9590 hc        1 MOL      0.071559
     97 H42        -6.5890    1.6500   -1.7910 hc        1 MOL      0.071559
     98 H43        -7.6630    3.0150   -1.2510 hc        1 MOL      0.071559
     99 H44        -6.4700    5.0830   -3.6460 hc        1 MOL      0.064016
    100 H45        -7.7420    5.3270   -2.4850 hc        1 MOL      0.064016
    101 H46        -6.6040    6.6300   -2.8990 hc        1 MOL      0.064016
    102 N10        -5.3510    0.6360    0.4960 n         1 MOL     -0.180422
    103 C32        -6.5160    0.9390    1.3240 c3        1 MOL     -0.000567
    104 C33        -7.5630   -0.1620    1.2720 c         1 MOL      0.518813
    105 O16        -7.2080   -1.3480    1.4350 o         1 MOL     -0.471472
    106 C34        -6.1520    1.3980    2.7680 c3        1 MOL      0.015618
    107 C35        -5.1140    0.5880    3.5670 c         1 MOL      0.585238
    108 O17        -3.8510    0.7360    3.3400 o         1 MOL     -0.702143
    109 O18        -5.6190   -0.2560    4.3700 o         1 MOL     -0.702143
    110 H47        -5.0820   -0.3260    0.4220 hn        1 MOL      0.261394
    111 H48        -7.0630    1.7400    0.8390 h1        1 MOL     -0.040205
    112 H49        -7.0170    1.5890    3.3990 hc        1 MOL     -0.024268
    113 H50        -5.7470    2.4110    2.7300 hc        1 MOL     -0.024268
    114 N11        -8.8410    0.2440    1.2110 n         1 MOL     -0.494026
    115 C36       -10.0260   -0.5390    1.1470 c3        1 MOL      0.287666
    116 C37       -10.6210   -0.5880   -0.3050 c         1 MOL      0.229148
    117 O19       -10.7610    0.4550   -0.8920 o         1 MOL     -0.524752
    118 C38       -11.0380    0.0460    2.1380 c3        1 MOL     -0.162605
    119 C39       -12.4330   -0.6580    2.1740 ca        1 MOL      0.087804
    120 C40       -13.3470   -0.3950    1.1990 ca        1 MOL     -0.196981
    121 C41       -12.6680   -1.6770    3.1890 ca        1 MOL     -0.196981
    122 C42       -14.5070   -1.2120    1.0850 ca        1 MOL     -0.092072
    123 C43       -13.9000   -2.3330    3.1970 ca        1 MOL     -0.092072
    124 C44       -14.7720   -2.1340    2.1030 ca        1 MOL     -0.154195
    125 H51        -9.0420    1.2360    1.2030 hn        1 MOL      0.290868
    126 H52        -9.9410   -1.5380    1.5820 h1        1 MOL      0.040436
    127 H53       -11.2800    1.1110    2.0440 hc        1 MOL      0.056572
    128 H54       -10.6120   -0.0440    3.1470 hc        1 MOL      0.056572
    129 H55       -13.2160    0.3730    0.4640 ha        1 MOL      0.149118
    130 H56       -11.9560   -1.9430    3.9650 ha        1 MOL      0.149118
    131 H57       -15.2780   -1.0770    0.3430 ha        1 MOL      0.104680
    132 H58       -14.0480   -3.0040    4.0340 ha        1 MOL      0.104680
    133 H59       -15.6460   -2.7600    2.1260 ha        1 MOL      0.097901
    134 N12       -11.1530   -1.7160   -0.8070 n         1 MOL      0.254383
    135 C45       -11.1210   -3.1130   -0.2320 c3        1 MOL     -0.026263
    136 C46        -9.7100   -3.6790   -0.1790 c         1 MOL      0.438265
    137 O20        -9.2450   -4.2490    0.8370 o         1 MOL     -0.543300
    138 C47       -11.9930   -3.9760   -1.1270 c3        1 MOL     -0.017894
    139 C48       -12.6520   -3.0510   -2.0890 c3        1 MOL      0.009950
    140 C49       -11.9970   -1.6890   -1.9550 c3        1 MOL     -0.121290
    141 H60       -11.4160   -3.0330    0.8130 h1        1 MOL      0.009688
    142 H61       -11.4500   -4.6600   -1.7910 hc        1 MOL      0.025522
    143 H62       -12.7430   -4.6240   -0.6690 hc        1 MOL      0.025522
    144 H63       -12.6190   -3.3510   -3.1320 hc        1 MOL      0.004139
    145 H64       -13.6980   -2.9710   -1.8080 hc        1 MOL      0.004139
    146 H65       -11.3890   -1.4370   -2.8200 h1        1 MOL      0.036771
    147 H66       -12.7470   -0.9290   -1.7360 h1        1 MOL      0.036771
    148 N13        -9.0130   -3.4690   -1.3070 n         1 MOL     -0.410447
    149 C50        -7.5540   -3.7130   -1.3630 c3        1 MOL      0.115533
    150 C51        -7.3220   -5.2390   -1.5260 c         1 MOL      0.402371
    151 O21        -7.5210   -5.8260   -2.6030 o         1 MOL     -0.596391
    152 C52        -7.0000   -2.9720   -2.6070 c3        1 MOL      0.110038
    153 C53        -6.9170   -1.4460   -2.3870 c3        1 MOL     -0.080104
    154 C54        -6.4510   -0.6830   -3.6340 c         1 MOL      0.731567
    155 O22        -5.2780   -0.9640   -4.0670 o         1 MOL     -0.722765
    156 O23        -7.1980    0.1130   -4.2670 o         1 MOL     -0.722765
    157 H67        -9.3730   -2.8330   -2.0030 hn        1 MOL      0.281799
    158 H68        -7.0380   -3.4360   -0.4420 h1        1 MOL      0.091616
    159 H69        -7.6630   -3.0740   -3.4620 hc        1 MOL     -0.015232
    160 H70        -6.0540   -3.3870   -2.9710 hc        1 MOL     -0.015232
    161 H71        -6.3120   -1.1510   -1.5270 hc        1 MOL     -0.065838
    162 H72        -7.9260   -1.1020   -2.1310 hc        1 MOL     -0.065838
    163 N14        -7.0360   -5.9500   -0.4840 n         1 MOL     -0.247052
    164 C55        -6.6550   -5.7020    0.8870 c3        1 MOL     -0.192033
    165 H73        -5.8850   -6.4130    1.1840 h1        1 MOL      0.096401
    166 H74        -6.2680   -4.6880    0.9790 h1        1 MOL      0.096401
    167 H75        -7.5250   -5.8190    1.5330 h1        1 MOL      0.096401
    168 H76        -7.2160   -6.9130   -0.7170 hn        1 MOL      0.236881
    169 Ca1         7.7090   -0.2120    1.2250 Ca        1 MOL      1.721601
    170 O24         9.1890    0.5900    3.2910 oh        1 MOL     -0.845628
    171 H77         9.9270    1.1960    3.2200 ho        1 MOL      0.417013
    172 H78         9.3530    0.1210    4.1130 ho        1 MOL      0.417013
    173 O25         5.4370   -1.2500    0.4530 oh        1 MOL     -0.845628
    174 H79         4.9930   -1.3830   -0.3820 ho        1 MOL      0.417013
    175 H80         4.8500   -1.6160    1.1100 ho        1 MOL      0.417013
    176 O26         6.3210   -0.9330    3.4820 oh        1 MOL     -0.845628
    177 H81         6.7630   -1.5790    4.0360 ho        1 MOL      0.417013
    178 H82         5.6570   -0.5410    4.0520 ho        1 MOL      0.417013
@<TRIPOS>BOND
     1    1    2 1   
     2    1    4 1   
     3    1    5 1   
     4    1    6 1   
     5    2    3 2   
     6    2    7 1   
     7    7    8 1   
     8    7   15 1   
     9    8    9 1   
    10    8   11 1   
    11    8   16 1   
    12    9   10 2   
    13    9   19 1   
    14   11   12 1   
    15   11   17 1   
    16   11   18 1   
    17   12   13 1   
    18   12   14 1   
    19   19   20 1   
    20   19   24 1   
    21   20   21 1   
    22   20   23 1   
    23   20   25 1   
    24   21   22 2   
    25   21   29 1   
    26   23   26 1   
    27   23   27 1   
    28   23   28 1   
    29   29   30 1   
    30   29   37 1   
    31   30   31 1   
    32   30   33 1   
    33   30   38 1   
    34   31   32 2   
    35   31   41 1   
    36   33   34 1   
    37   33   39 1   
    38   33   40 1   
    39   34   35 1   
    40   34   36 1   
    41   41   42 1   
    42   41   45 1   
    43   42   43 1   
    44   42   46 1   
    45   42   47 1   
    46   43   44 2   
    47   43   48 1   
    48   48   49 1   
    49   48   56 1   
    50   49   50 1   
    51   49   52 1   
    52   49   57 1   
    53   50   51 2   
    54   50   62 1   
    55   52   53 1   
    56   52   58 1   
    57   52   59 1   
    58   53   54 1   
    59   53   55 2   
    60   54   60 1   
    61   54   61 1   
    62   62   63 1   
    63   62   66 1   
    64   63   64 1   
    65   63   67 1   
    66   63   68 1   
    67   64   65 2   
    68   64   69 1   
    69   69   70 1   
    70   69   76 1   
    71   70   71 1   
    72   70   73 1   
    73   70   77 1   
    74   71   72 2   
    75   71   83 1   
    76   73   74 1   
    77   73   75 1   
    78   73   78 1   
    79   74   80 1   
    80   74   81 1   
    81   74   82 1   
    82   75   79 1   
    83   83   84 1   
    84   83   91 1   
    85   84   85 1   
    86   84   87 1   
    87   84   92 1   
    88   85   86 2   
    89   85  102 1   
    90   87   88 1   
    91   87   89 1   
    92   87   93 1   
    93   88   90 1   
    94   88   94 1   
    95   88   95 1   
    96   89   96 1   
    97   89   97 1   
    98   89   98 1   
    99   90   99 1   
   100   90  100 1   
   101   90  101 1   
   102  102  103 1   
   103  102  110 1   
   104  103  104 1   
   105  103  106 1   
   106  103  111 1   
   107  104  105 2   
   108  104  114 1   
   109  106  107 1   
   110  106  112 1   
   111  106  113 1   
   112  107  108 1   
   113  107  109 1   
   114  114  115 1   
   115  114  125 1   
   116  115  116 1   
   117  115  118 1   
   118  115  126 1   
   119  116  117 2   
   120  116  134 1   
   121  118  119 1   
   122  118  127 1   
   123  118  128 1   
   124  119  120 ar  
   125  119  121 ar  
   126  120  122 ar  
   127  120  129 1   
   128  121  123 ar  
   129  121  130 1   
   130  122  124 ar  
   131  122  131 1   
   132  123  124 ar  
   133  123  132 1   
   134  124  133 1   
   135  134  135 1   
   136  134  140 1   
   137  135  136 1   
   138  135  138 1   
   139  135  141 1   
   140  136  137 2   
   141  136  148 1   
   142  138  139 1   
   143  138  142 1   
   144  138  143 1   
   145  139  140 1   
   146  139  144 1   
   147  139  145 1   
   148  140  146 1   
   149  140  147 1   
   150  148  149 1   
   151  148  157 1   
   152  149  150 1   
   153  149  152 1   
   154  149  158 1   
   155  150  151 2   
   156  150  163 1   
   157  152  153 1   
   158  152  159 1   
   159  152  160 1   
   160  153  154 1   
   161  153  161 1   
   162  153  162 1   
   163  154  155 1   
   164  154  156 1   
   165  163  164 1   
   166  163  168 1   
   167  164  165 1   
   168  164  166 1   
   169  164  167 1   
   170  170  171 1   
   171  170  172 1   
   172  173  174 1   
   173  173  175 1   
   174  176  177 1   
   175  176  178 1   
@<TRIPOS>SUBSTRUCTURE
     1 MOL         1 TEMP              0 ****  ****    0 ROOT
