@<TRIPOS>MOLECULE
MOL
  178   175     1     0     0
SMALL
resp


@<TRIPOS>ATOM
      1 C1          4.7080   -1.5260    3.0730 c3        1 MOL     -0.305896
      2 C2          6.1110   -0.8300    2.7670 c         1 MOL      0.664967
      3 O1          6.1380    0.2840    2.1950 o         1 MOL     -0.603269
      4 H1          4.6120   -1.6940    4.1460 hc        1 MOL      0.083733
      5 H2          3.8990   -0.8790    2.7340 hc        1 MOL      0.083733
      6 H3          4.6530   -2.4810    2.5500 hc        1 MOL      0.083733
      7 N1          7.2310   -1.4730    3.0610 n         1 MOL     -0.642447
      8 C3          8.5340   -1.0630    2.5640 c3        1 MOL      0.375668
      9 C4          8.7510   -1.2580    1.0320 c         1 MOL      0.451142
     10 O2          8.6030   -2.3770    0.5400 o         1 MOL     -0.584573
     11 C5          9.6250   -1.6210    3.4130 c3        1 MOL     -0.217312
     12 C6         10.9720   -0.8980    3.2780 c         1 MOL      0.682285
     13 O3         11.8330   -1.0620    4.1700 o         1 MOL     -0.716949
     14 O4         11.1870   -0.1660    2.2620 o         1 MOL     -0.716949
     15 H4          7.1950   -2.2690    3.6810 hn        1 MOL      0.308899
     16 H5          8.6330    0.0060    2.7630 h1        1 MOL     -0.008928
     17 H6          9.6940   -2.6940    3.2640 hc        1 MOL      0.018909
     18 H7          9.2810   -1.5200    4.4410 hc        1 MOL      0.018909
     19 N2          8.9840   -0.1990    0.2900 n         1 MOL     -0.323327
     20 C7          9.0090   -0.0950   -1.1860 c3        1 MOL      0.214443
     21 C8          7.7300   -0.4430   -1.9430 c         1 MOL      0.295904
     22 O5          7.7820   -0.4600   -3.1780 o         1 MOL     -0.513837
     23 C9          9.4940    1.2850   -1.5290 c3        1 MOL     -0.374900
     24 H8          9.1710    0.6490    0.8030 hn        1 MOL      0.223862
     25 H9          9.7830   -0.7670   -1.5330 h1        1 MOL      0.080151
     26 H10         9.4840    1.2650   -2.6150 hc        1 MOL      0.098695
     27 H11         8.8830    2.0690   -1.0980 hc        1 MOL      0.098695
     28 H12        10.5140    1.2600   -1.1470 hc        1 MOL      0.098695
     29 N3          6.6230   -0.7270   -1.2750 n         1 MOL     -0.187267
     30 C10         5.2890   -1.1760   -1.7180 c3        1 MOL      0.506016
     31 C11         4.7510   -0.4010   -2.9960 c         1 MOL      0.211527
     32 O6          4.4490   -0.9490   -4.0580 o         1 MOL     -0.474547
     33 C12         5.2450   -2.7200   -1.9120 c3        1 MOL     -0.392235
     34 C13         3.8150   -3.2080   -1.6630 c         1 MOL      0.911083
     35 O7          3.5320   -4.4270   -1.8070 o         1 MOL     -0.790619
     36 O8          2.9230   -2.5190   -1.1740 o         1 MOL     -0.790619
     37 H13         6.6250   -0.5720   -0.2770 hn        1 MOL      0.097763
     38 H14         4.5840   -0.9440   -0.9220 h1        1 MOL     -0.049361
     39 H15         5.9500   -3.1900   -1.2320 hc        1 MOL      0.081660
     40 H16         5.4830   -3.0750   -2.9130 hc        1 MOL      0.081660
     41 N4          4.6870    0.9320   -2.9530 n         1 MOL     -0.134655
     42 C14         4.6290    1.7930   -4.1180 c3        1 MOL     -0.028732
     43 C15         3.4690    2.7810   -4.2740 c         1 MOL      0.521509
     44 O9          3.5530    3.7710   -4.9350 o         1 MOL     -0.554605
     45 H17         4.9110    1.3880   -2.0770 hn        1 MOL      0.164377
     46 H18         4.5950    1.2150   -5.0350 h1        1 MOL      0.061443
     47 H19         5.5770    2.3210   -4.1940 h1        1 MOL      0.061443
     48 N5          2.3910    2.4720   -3.4900 n         1 MOL     -0.438037
     49 C16         1.1320    3.3140   -3.5260 c3        1 MOL      0.153906
     50 C17         1.3190    4.3160   -2.4150 c         1 MOL      0.522617
     51 O10         2.1000    4.1000   -1.4230 o         1 MOL     -0.512934
     52 C18         0.0220    2.3360   -3.4360 c3        1 MOL     -0.125878
     53 C19        -1.1870    2.9260   -4.0940 c         1 MOL      0.526117
     54 N6         -2.2220    2.1940   -3.9960 n         1 MOL     -0.662179
     55 O11        -1.5090    4.0290   -4.3610 o         1 MOL     -0.515235
     56 H20         2.4890    1.7570   -2.7840 hn        1 MOL      0.209432
     57 H21         1.1430    3.7620   -4.5130 h1        1 MOL      0.043399
     58 H22        -0.1660    1.9860   -2.4190 hc        1 MOL      0.093361
     59 H23         0.2210    1.4250   -3.9960 hc        1 MOL      0.093361
     60 H24        -2.1260    1.1950   -3.8730 hn        1 MOL      0.315271
     61 H25        -3.0730    2.5510   -4.4170 hn        1 MOL      0.315271
     62 N7          0.6330    5.4480   -2.5100 n         1 MOL     -0.495827
     63 C20         0.5990    6.4650   -1.4250 c3        1 MOL      0.296898
     64 C21        -0.6690    6.4730   -0.5680 c         1 MOL      0.440096
     65 O12        -1.6940    6.0420   -1.0590 o         1 MOL     -0.459073
     66 H26         0.0110    5.5110   -3.3030 hn        1 MOL      0.245929
     67 H27         0.8110    7.4980   -1.7100 h1        1 MOL     -0.019488
     68 H28         1.4750    6.1960   -0.8450 h1        1 MOL     -0.019488
     69 N8         -0.5220    6.9310    0.6650 n         1 MOL     -0.432550
     70 C22        -1.6410    7.1660    1.5760 c3        1 MOL     -0.126746
     71 C23        -2.3570    5.9140    2.0340 c         1 MOL      0.303558
     72 O13        -3.4850    5.9720    2.5220 o         1 MOL     -0.521372
     73 C24        -1.2190    7.8740    2.8330 c3        1 MOL      0.502079
     74 C25        -0.1340    7.2180    3.7000 c3        1 MOL     -0.334968
     75 O14        -0.7840    9.1680    2.3780 oh        1 MOL     -0.679081
     76 H29         0.3480    7.3550    0.9600 hn        1 MOL      0.238986
     77 H30        -2.2630    7.9130    1.0870 h1        1 MOL      0.137572
     78 H31        -2.1570    7.9940    3.3820 h1        1 MOL      0.027871
     79 H32         0.1150    9.0780    2.0620 ho        1 MOL      0.396921
     80 H33        -0.5460    7.0630    4.6940 hc        1 MOL      0.077088
     81 H34         0.1880    6.3020    3.2170 hc        1 MOL      0.077088
     82 H35         0.7280    7.8780    3.7400 hc        1 MOL      0.077088
     83 N9         -1.6640    4.8040    1.9850 n         1 MOL      0.004136
     84 C26        -2.1800    3.4280    2.2260 c3        1 MOL     -0.009310
     85 C27        -1.6940    2.3850    1.1740 c         1 MOL      0.383919
     86 O15        -0.7620    2.6250    0.3960 o         1 MOL     -0.494240
     87 C28        -1.9390    2.9250    3.6840 c3        1 MOL      0.001020
     88 C29        -0.5130    2.8840    4.2070 c3        1 MOL      0.060932
     89 C30        -2.7180    3.8190    4.6890 c3        1 MOL     -0.366687
     90 C31         0.5510    2.3710    3.2190 c3        1 MOL     -0.209036
     91 H36        -0.7520    4.7860    1.5540 hn        1 MOL      0.172022
     92 H37        -3.2650    3.3710    2.1890 h1        1 MOL      0.072582
     93 H38        -2.3390    1.9130    3.7010 hc        1 MOL      0.041432
     94 H39        -0.4030    2.3790    5.1650 hc        1 MOL     -0.010501
     95 H40        -0.2140    3.9200    4.3640 hc        1 MOL     -0.010501
     96 H41        -2.7060    3.3890    5.6900 hc        1 MOL      0.096381
     97 H42        -2.2320    4.7900    4.7300 hc        1 MOL      0.096381
     98 H43        -3.7500    4.0720    4.4390 hc        1 MOL      0.096381
     99 H44         0.1940    1.4060    2.8380 hc        1 MOL      0.074188
    100 H45         0.7010    3.1160    2.4450 hc        1 MOL      0.074188
    101 H46         1.4710    2.1310    3.7610 hc        1 MOL      0.074188
    102 N10        -2.3590    1.1950    1.1300 n         1 MOL     -0.499303
    103 C32        -2.0350    0.0010    0.3460 c3        1 MOL      0.671929
    104 C33        -3.3970   -0.5340   -0.2110 c         1 MOL      0.223956
    105 O16        -3.5530   -1.7320   -0.4080 o         1 MOL     -0.314735
    106 C34        -1.4340   -1.1360    1.2290 c3        1 MOL     -0.434197
    107 C35        -0.7400   -2.1270    0.4150 c         1 MOL      0.773085
    108 O17        -0.4800   -2.0250   -0.8040 o         1 MOL     -0.713290
    109 O18        -0.1870   -3.0790    1.0300 o         1 MOL     -0.713290
    110 H47        -3.1340    1.0790    1.7710 hn        1 MOL      0.266327
    111 H48        -1.4660    0.2590   -0.5560 h1        1 MOL     -0.078088
    112 H49        -2.3120   -1.5800    1.7160 hc        1 MOL      0.080100
    113 H50        -0.7990   -0.7000    1.9950 hc        1 MOL      0.080100
    114 N11        -4.3180    0.4200   -0.4910 n         1 MOL     -0.513546
    115 C36        -5.6650    0.1020   -0.9140 c3        1 MOL      0.237391
    116 C37        -6.3560   -0.8780    0.0220 c         1 MOL      0.607279
    117 O19        -6.5410   -0.6010    1.2030 o         1 MOL     -0.591988
    118 C38        -6.4260    1.4390   -1.1680 c3        1 MOL     -0.271346
    119 C39        -7.8770    1.3070   -1.4510 ca        1 MOL      0.040924
    120 C40        -8.3960    0.3820   -2.3770 ca        1 MOL     -0.129634
    121 C41        -8.7860    1.9240   -0.5860 ca        1 MOL     -0.129634
    122 C42        -9.7820   -0.0340   -2.3660 ca        1 MOL     -0.123722
    123 C43       -10.1300    1.5330   -0.5510 ca        1 MOL     -0.123722
    124 C44       -10.6620    0.5400   -1.4260 ca        1 MOL     -0.125740
    125 H51        -4.0840    1.3810   -0.2990 hn        1 MOL      0.251462
    126 H52        -5.5580   -0.3730   -1.8890 h1        1 MOL      0.036252
    127 H53        -5.8620    1.8310   -2.0190 hc        1 MOL      0.123873
    128 H54        -6.3210    2.0330   -0.2540 hc        1 MOL      0.123873
    129 H55        -7.7470   -0.0070   -3.1380 ha        1 MOL      0.113602
    130 H56        -8.3830    2.6630    0.1010 ha        1 MOL      0.113602
    131 H57       -10.2050   -0.7800   -3.0330 ha        1 MOL      0.114420
    132 H58       -10.8220    1.9890    0.1450 ha        1 MOL      0.114420
    133 H59       -11.6960    0.2420   -1.3350 ha        1 MOL      0.118956
    134 N12        -6.7400   -2.0610   -0.5030 n         1 MOL     -0.221758
    135 C45        -7.4560   -3.1170    0.1700 c3        1 MOL      0.059109
    136 C46        -6.6010   -3.9330    1.1920 c         1 MOL      0.293898
    137 O20        -7.0900   -4.7820    1.9220 o         1 MOL     -0.506230
    138 C47        -8.1320   -3.9430   -0.8900 c3        1 MOL     -0.177015
    139 C48        -7.0350   -3.9470   -1.9580 c3        1 MOL      0.128079
    140 C49        -6.4320   -2.5570   -1.8610 c3        1 MOL     -0.080298
    141 H60        -8.2850   -2.7350    0.7600 h1        1 MOL      0.081777
    142 H61        -8.2870   -4.9790   -0.5830 hc        1 MOL      0.066037
    143 H62        -9.0150   -3.4220   -1.2760 hc        1 MOL      0.066037
    144 H63        -6.3350   -4.7680   -1.8010 hc        1 MOL      0.002922
    145 H64        -7.4070   -4.1920   -2.9590 hc        1 MOL      0.002922
    146 H65        -5.3660   -2.5660   -2.0730 h1        1 MOL      0.025432
    147 H66        -6.8350   -1.9590   -2.6760 h1        1 MOL      0.025432
    148 N13        -5.2660   -3.7680    1.2130 n         1 MOL     -0.203673
    149 C50        -4.3390   -4.5480    2.0010 c3        1 MOL      0.041290
    150 C51        -4.1770   -3.8490    3.3680 c         1 MOL      0.395908
    151 O21        -3.6100   -4.4870    4.2510 o         1 MOL     -0.539007
    152 C52        -3.0640   -4.7030    1.2060 c3        1 MOL      0.451457
    153 C53        -3.1080   -5.6270    0.0390 c3        1 MOL     -0.373948
    154 C54        -1.6480   -5.9290   -0.4830 c         1 MOL      0.739872
    155 O22        -1.0350   -6.8890   -0.0750 o         1 MOL     -0.714565
    156 O23        -1.1090   -5.1240   -1.3020 o         1 MOL     -0.714565
    157 H67        -4.9050   -3.1120    0.5360 hn        1 MOL      0.163506
    158 H68        -4.6370   -5.5620    2.2510 h1        1 MOL      0.066286
    159 H69        -2.2930   -5.0840    1.8780 hc        1 MOL     -0.115848
    160 H70        -2.6980   -3.7590    0.7890 hc        1 MOL     -0.115848
    161 H71        -3.6270   -5.0700   -0.7430 hc        1 MOL      0.057437
    162 H72        -3.5940   -6.5130    0.4300 hc        1 MOL      0.057437
    163 N14        -4.3840   -2.5520    3.4820 n         1 MOL     -0.206576
    164 C55        -4.1640   -1.8730    4.8010 c3        1 MOL     -0.139771
    165 H73        -3.5200   -2.4920    5.4240 h1        1 MOL      0.079390
    166 H74        -3.6900   -0.9050    4.6370 h1        1 MOL      0.079390
    167 H75        -5.1230   -1.7280    5.3000 h1        1 MOL      0.079390
    168 H76        -4.5780   -2.0290    2.6510 hn        1 MOL      0.181829
    169 Ca1         1.1840   -4.3230   -0.7020 Ca        1 MOL      1.739958
    170 O24         1.3700   -7.2070   -1.0200 oh        1 MOL     -0.881114
    171 H77         0.4810   -7.2260   -0.6710 ho        1 MOL      0.411655
    172 H78         1.7710   -8.0110   -0.6940 ho        1 MOL      0.411655
    173 O25         3.1070   -4.4370    1.1790 oh        1 MOL     -0.881114
    174 H79         3.9820   -4.7550    0.9840 ho        1 MOL      0.411655
    175 H80         2.9940   -4.5980    2.1160 ho        1 MOL      0.411655
    176 O26         0.8960   -3.7830   -3.3060 oh        1 MOL     -0.881114
    177 H81         0.0970   -3.4040   -3.6610 ho        1 MOL      0.411655
    178 H82         1.5920   -3.5190   -3.9110 ho        1 MOL      0.411655
@<TRIPOS>BOND
     1    1    2 1   
     2    1    4 1   
     3    1    5 1   
     4    1    6 1   
     5    2    3 2   
     6    2    7 1   
     7    7    8 1   
     8    7   15 1   
     9    8    9 1   
    10    8   11 1   
    11    8   16 1   
    12    9   10 2   
    13    9   19 1   
    14   11   12 1   
    15   11   17 1   
    16   11   18 1   
    17   12   13 1   
    18   12   14 1   
    19   19   20 1   
    20   19   24 1   
    21   20   21 1   
    22   20   23 1   
    23   20   25 1   
    24   21   22 2   
    25   21   29 1   
    26   23   26 1   
    27   23   27 1   
    28   23   28 1   
    29   29   30 1   
    30   29   37 1   
    31   30   31 1   
    32   30   33 1   
    33   30   38 1   
    34   31   32 2   
    35   31   41 1   
    36   33   34 1   
    37   33   39 1   
    38   33   40 1   
    39   34   35 1   
    40   34   36 1   
    41   41   42 1   
    42   41   45 1   
    43   42   43 1   
    44   42   46 1   
    45   42   47 1   
    46   43   44 2   
    47   43   48 1   
    48   48   49 1   
    49   48   56 1   
    50   49   50 1   
    51   49   52 1   
    52   49   57 1   
    53   50   51 2   
    54   50   62 1   
    55   52   53 1   
    56   52   58 1   
    57   52   59 1   
    58   53   54 1   
    59   53   55 2   
    60   54   60 1   
    61   54   61 1   
    62   62   63 1   
    63   62   66 1   
    64   63   64 1   
    65   63   67 1   
    66   63   68 1   
    67   64   65 2   
    68   64   69 1   
    69   69   70 1   
    70   69   76 1   
    71   70   71 1   
    72   70   73 1   
    73   70   77 1   
    74   71   72 2   
    75   71   83 1   
    76   73   74 1   
    77   73   75 1   
    78   73   78 1   
    79   74   80 1   
    80   74   81 1   
    81   74   82 1   
    82   75   79 1   
    83   83   84 1   
    84   83   91 1   
    85   84   85 1   
    86   84   87 1   
    87   84   92 1   
    88   85   86 2   
    89   85  102 1   
    90   87   88 1   
    91   87   89 1   
    92   87   93 1   
    93   88   90 1   
    94   88   94 1   
    95   88   95 1   
    96   89   96 1   
    97   89   97 1   
    98   89   98 1   
    99   90   99 1   
   100   90  100 1   
   101   90  101 1   
   102  102  103 1   
   103  102  110 1   
   104  103  104 1   
   105  103  106 1   
   106  103  111 1   
   107  104  105 2   
   108  104  114 1   
   109  106  107 1   
   110  106  112 1   
   111  106  113 1   
   112  107  108 1   
   113  107  109 1   
   114  114  115 1   
   115  114  125 1   
   116  115  116 1   
   117  115  118 1   
   118  115  126 1   
   119  116  117 2   
   120  116  134 1   
   121  118  119 1   
   122  118  127 1   
   123  118  128 1   
   124  119  120 ar  
   125  119  121 ar  
   126  120  122 ar  
   127  120  129 1   
   128  121  123 ar  
   129  121  130 1   
   130  122  124 ar  
   131  122  131 1   
   132  123  124 ar  
   133  123  132 1   
   134  124  133 1   
   135  134  135 1   
   136  134  140 1   
   137  135  136 1   
   138  135  138 1   
   139  135  141 1   
   140  136  137 2   
   141  136  148 1   
   142  138  139 1   
   143  138  142 1   
   144  138  143 1   
   145  139  140 1   
   146  139  144 1   
   147  139  145 1   
   148  140  146 1   
   149  140  147 1   
   150  148  149 1   
   151  148  157 1   
   152  149  150 1   
   153  149  152 1   
   154  149  158 1   
   155  150  151 2   
   156  150  163 1   
   157  152  153 1   
   158  152  159 1   
   159  152  160 1   
   160  153  154 1   
   161  153  161 1   
   162  153  162 1   
   163  154  155 1   
   164  154  156 1   
   165  163  164 1   
   166  163  168 1   
   167  164  165 1   
   168  164  166 1   
   169  164  167 1   
   170  170  171 1   
   171  170  172 1   
   172  173  174 1   
   173  173  175 1   
   174  176  177 1   
   175  176  178 1   
@<TRIPOS>SUBSTRUCTURE
     1 MOL         1 TEMP              0 ****  ****    0 ROOT
