@<TRIPOS>MOLECULE
MOL
  195   189     1     0     0
SMALL
resp


@<TRIPOS>ATOM
      1 C1         -4.0760   -1.2410    3.0430 c3        1 MOL     -0.340619
      2 C2         -3.2350   -1.9910    2.0090 c         1 MOL      0.638203
      3 O1         -2.0410   -1.6790    1.7780 o         1 MOL     -0.559010
      4 H1         -5.1040   -1.1660    2.6890 hc        1 MOL      0.086396
      5 H2         -4.0560   -1.7800    3.9900 hc        1 MOL      0.086396
      6 H3         -3.6680   -0.2400    3.1860 hc        1 MOL      0.086396
      7 N1         -3.7220   -3.0880    1.4720 n         1 MOL     -0.423909
      8 C3         -3.0230   -4.1380    0.6690 c3        1 MOL     -0.035882
      9 C4         -1.5360   -4.3260    0.9850 c         1 MOL      0.836786
     10 O2         -0.6890   -4.4690    0.0510 o         1 MOL     -0.588653
     11 C5         -3.2890   -3.9670   -0.8600 c3        1 MOL     -0.439676
     12 C6         -4.7470   -4.0320   -1.3200 c         1 MOL      0.902033
     13 O3         -5.1940   -3.1150   -2.0270 o         1 MOL     -0.791028
     14 O4         -5.4980   -4.8790   -0.8600 o         1 MOL     -0.791028
     15 H4         -4.7050   -3.2590    1.6480 hn        1 MOL      0.209234
     16 H5         -3.4420   -5.1130    0.8920 h1        1 MOL      0.100519
     17 H6         -2.7020   -4.7470   -1.3430 hc        1 MOL      0.132611
     18 H7         -2.9660   -2.9660   -1.1680 hc        1 MOL      0.132611
     19 N2         -1.1500   -4.5690    2.2350 n         1 MOL     -0.695893
     20 C7          0.2550   -4.7030    2.7090 c3        1 MOL     -0.029584
     21 C8          0.9520   -5.9270    2.1650 c         1 MOL      0.594485
     22 O5          0.4080   -7.0290    2.2100 o         1 MOL     -0.594628
     23 C9          0.3280   -4.5430    4.2730 c3        1 MOL      0.083891
     24 C10        -0.3290   -5.7700    5.0980 c3        1 MOL      0.166649
     25 C11        -0.4020   -3.3220    4.7580 c3        1 MOL     -0.258918
     26 C12         0.2460   -5.9140    6.5180 c3        1 MOL     -0.246578
     27 H8         -1.8430   -4.5020    2.9770 hn        1 MOL      0.321786
     28 H9          0.8320   -3.8870    2.2720 h1        1 MOL      0.156561
     29 H10         1.3920   -4.4860    4.4920 hc        1 MOL      0.046246
     30 H11        -0.0580   -6.6990    4.6140 hc        1 MOL     -0.031395
     31 H12        -1.4090   -5.6750    5.0290 hc        1 MOL     -0.031395
     32 H13        -1.4670   -3.3030    4.5210 hc        1 MOL      0.077096
     33 H14        -0.1480   -3.1760    5.8080 hc        1 MOL      0.077096
     34 H15        -0.0500   -2.4240    4.2370 hc        1 MOL      0.077096
     35 H16         1.3390   -5.8990    6.4030 hc        1 MOL      0.044242
     36 H17        -0.1990   -5.1460    7.1510 hc        1 MOL      0.044242
     37 H18        -0.0540   -6.8720    6.9480 hc        1 MOL      0.044242
     38 N3          2.1450   -5.8550    1.5860 n         1 MOL     -0.487864
     39 C13         2.8140   -4.6290    1.0270 c3        1 MOL     -0.054752
     40 C14         3.6300   -4.9810   -0.2200 c         1 MOL      0.611031
     41 O6          4.8060   -5.3100   -0.0730 o         1 MOL     -0.484734
     42 C15         3.6430   -3.9370    2.1870 c3        1 MOL     -0.190152
     43 C16         4.7320   -3.0280    1.6310 c         1 MOL      0.650467
     44 O7          5.9100   -3.1680    2.0220 o         1 MOL     -0.676185
     45 O8          4.4400   -2.1080    0.8320 o         1 MOL     -0.676185
     46 H19         2.6150   -6.7130    1.3640 hn        1 MOL      0.306397
     47 H20         2.0530   -3.9350    0.6650 h1        1 MOL      0.042522
     48 H21         4.1120   -4.6750    2.8440 hc        1 MOL      0.048595
     49 H22         2.9030   -3.4890    2.8370 hc        1 MOL      0.048595
     50 N4          3.0400   -4.8590   -1.3520 n         1 MOL     -0.446043
     51 C17         3.7810   -5.1640   -2.5840 c3        1 MOL     -0.221242
     52 C18         5.0460   -4.3460   -2.9030 c         1 MOL      0.527244
     53 O9          6.0100   -4.9680   -3.3250 o         1 MOL     -0.568053
     54 H23         2.1220   -4.4510   -1.5060 hn        1 MOL      0.349995
     55 H24         3.1190   -5.1930   -3.4410 h1        1 MOL      0.110558
     56 H25         4.2160   -6.1570   -2.4900 h1        1 MOL      0.110558
     57 N5          5.0540   -3.0500   -2.6440 n         1 MOL     -0.308829
     58 C19         6.0220   -2.1070   -3.2510 c3        1 MOL      0.166877
     59 C20         7.1600   -1.5110   -2.4310 c         1 MOL      0.349421
     60 O10         8.2020   -1.0700   -2.9800 o         1 MOL     -0.582754
     61 C21         5.3120   -0.8820   -3.8630 c3        1 MOL     -0.415151
     62 C22         4.4390   -0.0760   -2.8640 c         1 MOL      0.808431
     63 O11         3.2050   -0.3720   -2.8080 o         1 MOL     -0.708140
     64 O12         4.9250    0.7420   -2.0800 o         1 MOL     -0.708140
     65 H26         4.2360   -2.6400   -2.2280 hn        1 MOL      0.234039
     66 H27         6.4650   -2.6480   -4.0970 h1        1 MOL      0.069100
     67 H28         4.6330   -1.3030   -4.6010 hc        1 MOL      0.077518
     68 H29         5.8920   -0.1920   -4.4740 hc        1 MOL      0.077518
     69 N6          7.1340   -1.5990   -1.1150 n         1 MOL     -0.172192
     70 C23         8.0600   -1.0760   -0.2120 c3        1 MOL     -0.005042
     71 C24         8.3270    0.4360   -0.1670 c         1 MOL      0.243820
     72 O13         9.1900    0.8160    0.7040 o         1 MOL     -0.532320
     73 H30         6.2960   -1.9850   -0.6980 hn        1 MOL      0.239998
     74 H31         8.9690   -1.6730   -0.0930 h1        1 MOL      0.079911
     75 H32         7.6360   -1.3020    0.7650 h1        1 MOL      0.079911
     76 N7          7.6580    1.2430   -1.0740 n         1 MOL      0.207848
     77 C25         7.7290    2.6800   -1.1640 c3        1 MOL     -0.099700
     78 C26         7.3200    3.4180    0.1870 c         1 MOL      0.566496
     79 O14         7.9040    4.4670    0.3510 o         1 MOL     -0.534078
     80 C27         9.0890    3.1290   -1.7410 c3        1 MOL      0.022981
     81 C28         9.6090    2.3230   -2.9780 c3        1 MOL     -0.075050
     82 C29         8.6220    2.3910   -4.1820 c         1 MOL      0.695671
     83 N8          7.9710    1.2940   -4.5800 n         1 MOL     -0.853195
     84 O15         8.3770    3.4180   -4.7130 o         1 MOL     -0.604914
     85 H33         6.8950    0.8020   -1.5660 hn        1 MOL      0.045907
     86 H34         6.9480    2.9850   -1.8630 h1        1 MOL      0.101126
     87 H35         9.8630    2.9230   -1.0070 hc        1 MOL      0.000329
     88 H36         9.1110    4.2040   -1.9560 hc        1 MOL      0.000329
     89 H37         9.7800    1.2670   -2.7790 hc        1 MOL     -0.000343
     90 H38        10.5480    2.7140   -3.3680 hc        1 MOL     -0.000343
     91 H39         8.0670    0.3770   -4.1640 hn        1 MOL      0.349352
     92 H40         7.2030    1.4220   -5.2210 hn        1 MOL      0.349352
     93 N9          6.4150    2.8310    0.9820 n         1 MOL     -0.509008
     94 C30         5.9890    3.3150    2.2790 c3        1 MOL     -0.022898
     95 C31         4.4960    3.2580    2.4770 c         1 MOL      0.675222
     96 O16         4.0480    4.0690    3.3120 o         1 MOL     -0.627955
     97 C32         6.6760    2.5500    3.4120 c3        1 MOL      0.167406
     98 C33         6.5850    1.0460    3.4320 c3        1 MOL     -0.295142
     99 C34         8.1660    2.9330    3.3890 c3        1 MOL     -0.295142
    100 H41         6.1270    1.9110    0.6850 hn        1 MOL      0.234741
    101 H42         6.3400    4.3440    2.3770 h1        1 MOL      0.103576
    102 H43         6.3490    2.9320    4.3770 hc        1 MOL     -0.026681
    103 H44         7.1040    0.6670    2.5430 hc        1 MOL      0.077506
    104 H45         7.1470    0.5670    4.2310 hc        1 MOL      0.077506
    105 H46         5.5250    0.7700    3.3620 hc        1 MOL      0.077506
    106 H47         8.5860    2.4750    2.4900 hc        1 MOL      0.077506
    107 H48         8.2440    4.0040    3.2340 hc        1 MOL      0.077506
    108 H49         8.6680    2.6420    4.3080 hc        1 MOL      0.077506
    109 N10         3.7700    2.4730    1.7760 n         1 MOL     -0.567383
    110 C35         2.3920    2.2070    2.0060 c3        1 MOL      0.298674
    111 C36         1.3710    2.4340    0.8300 c         1 MOL      0.497770
    112 O17         1.7540    2.5340   -0.2820 o         1 MOL     -0.508115
    113 C37         2.3520    0.7370    2.5890 c3        1 MOL      0.038513
    114 C38         0.9920    0.1180    2.6160 c         1 MOL      0.415623
    115 N11         0.5240   -0.4100    1.4870 n         1 MOL     -0.581801
    116 O18         0.2780    0.2690    3.6010 o         1 MOL     -0.576160
    117 H50         4.2390    1.8300    1.1500 hn        1 MOL      0.331433
    118 H51         2.0790    2.8620    2.8230 h1        1 MOL      0.001522
    119 H52         2.7850    0.6980    3.5870 hc        1 MOL      0.003962
    120 H53         2.9200    0.1230    1.8860 hc        1 MOL      0.003962
    121 H54         1.1390   -0.7260    0.7520 hn        1 MOL      0.322012
    122 H55        -0.4490   -0.6800    1.5760 hn        1 MOL      0.322012
    123 N12         0.0700    2.5300    1.0360 n         1 MOL     -0.519982
    124 C39        -0.9310    2.8080    0.0050 c3        1 MOL      0.258134
    125 C40        -2.1550    3.6100    0.5620 c         1 MOL      0.313637
    126 O19        -2.5120    3.3730    1.7320 o         1 MOL     -0.496520
    127 C41        -1.3290    1.5120   -0.6450 c3        1 MOL     -0.285218
    128 C42        -2.3700    1.7070   -1.6950 ca        1 MOL      0.023204
    129 C43        -3.6190    1.1040   -1.6520 ca        1 MOL     -0.111016
    130 C44        -2.0340    2.6030   -2.7240 ca        1 MOL     -0.111016
    131 C45        -4.4540    1.2540   -2.7630 ca        1 MOL     -0.302482
    132 C46        -2.9650    2.9460   -3.6830 ca        1 MOL     -0.302482
    133 C47        -4.2130    2.3140   -3.6860 ca        1 MOL      0.353880
    134 O20        -5.1170    2.6710   -4.6900 oh        1 MOL     -0.542707
    135 H56        -0.1980    2.5950    2.0080 hn        1 MOL      0.291407
    136 H57        -0.4340    3.4680   -0.7140 h1        1 MOL      0.040761
    137 H58        -1.6560    0.7960    0.1030 hc        1 MOL      0.148612
    138 H59        -0.4890    1.1270   -1.2090 hc        1 MOL      0.148612
    139 H60        -3.7680    0.3590   -0.8740 ha        1 MOL      0.130526
    140 H61        -1.1260    3.1770   -2.7690 ha        1 MOL      0.130526
    141 H62        -5.3300    0.6280   -2.8790 ha        1 MOL      0.185192
    142 H63        -2.6860    3.7940   -4.2820 ha        1 MOL      0.185192
    143 H64        -5.9560    2.2790   -4.4220 ho        1 MOL      0.380422
    144 N13        -2.7230    4.5380   -0.2360 n         1 MOL     -0.391051
    145 C48        -3.9860    5.1850    0.1230 c3        1 MOL      0.498667
    146 C49        -5.1160    4.8190   -0.8400 c         1 MOL      0.377968
    147 O21        -5.0120    5.1980   -2.0130 o         1 MOL     -0.563236
    148 C50        -3.8150    6.7270    0.2510 c3        1 MOL     -0.043281
    149 C51        -2.4880    7.2900    0.6550 c3        1 MOL     -0.162150
    150 C52        -2.4820    8.7760    0.6670 c         1 MOL      0.708521
    151 O22        -3.0340    9.3360    1.6420 o         1 MOL     -0.686235
    152 O23        -1.8070    9.4020   -0.1720 o         1 MOL     -0.686235
    153 H65        -2.4010    4.6270   -1.1940 hn        1 MOL      0.255797
    154 H66        -4.2400    4.7980    1.1170 h1        1 MOL     -0.094915
    155 H67        -4.5110    7.0770    1.0170 hc        1 MOL      0.004290
    156 H68        -4.1870    7.1540   -0.6750 hc        1 MOL      0.004290
    157 H69        -1.7520    6.9110   -0.0580 hc        1 MOL      0.024418
    158 H70        -2.2780    6.9290    1.6620 hc        1 MOL      0.024418
    159 N14        -6.1170    4.0560   -0.5450 n         1 MOL     -0.425531
    160 C53        -6.4190    3.4270    0.7870 c3        1 MOL     -0.062777
    161 C54        -6.6710    4.4590    1.8850 c         1 MOL      0.451964
    162 O24        -7.4120    5.3970    1.7680 o         1 MOL     -0.511802
    163 C55        -7.5870    2.4940    0.7050 c3        1 MOL      0.047815
    164 C56        -7.2770    1.4950   -0.4190 c3        1 MOL     -0.123987
    165 C57        -8.1980    0.2800   -0.4820 c         1 MOL      0.794389
    166 O25        -9.4490    0.3640   -0.5580 o         1 MOL     -0.766595
    167 O26        -7.7110   -0.8320   -0.5190 o         1 MOL     -0.766595
    168 H71        -6.8480    4.0170   -1.2380 hn        1 MOL      0.326023
    169 H72        -5.6410    2.7280    1.0910 h1        1 MOL      0.137317
    170 H73        -8.5640    2.9230    0.4670 hc        1 MOL     -0.001635
    171 H74        -7.6230    2.0650    1.7070 hc        1 MOL     -0.001635
    172 H75        -6.2530    1.1210   -0.3650 hc        1 MOL      0.012292
    173 H76        -7.2760    2.0750   -1.3470 hc        1 MOL      0.012292
    174 N15        -6.1680    4.1780    3.1220 n         1 MOL     -0.219977
    175 C58        -6.4080    4.9960    4.3290 c3        1 MOL     -0.171790
    176 H77        -5.4530    5.2740    4.7750 h1        1 MOL      0.089425
    177 H78        -6.9550    5.8980    4.0550 h1        1 MOL      0.089425
    178 H79        -6.9910    4.4210    5.0490 h1        1 MOL      0.089425
    179 H80        -5.4510    3.4730    3.1520 hn        1 MOL      0.200574
    180 Ca1        -7.7950   -3.1630   -1.5030 Ca        1 MOL      1.702538
    181 O27        -7.1910   -4.7900   -3.8200 oh        1 MOL     -0.819457
    182 H81        -6.8440   -5.6380   -3.5380 ho        1 MOL      0.388188
    183 H82        -6.9460   -4.7220   -4.7410 ho        1 MOL      0.388188
    184 O28        -7.6670   -1.5720   -3.5320 oh        1 MOL     -0.819457
    185 H83        -6.8950   -1.5640   -4.0920 ho        1 MOL      0.388188
    186 H84        -8.4150   -1.6150   -4.1380 ho        1 MOL      0.388188
    187 O29        -9.8610   -3.7370   -3.2870 oh        1 MOL     -0.819457
    188 H85        -9.6830   -4.5850   -3.6880 ho        1 MOL      0.388188
    189 H86       -10.6820   -3.4390   -3.6930 ho        1 MOL      0.388188
    190 O30        -9.0340   -5.4920   -1.0810 oh        1 MOL     -0.819457
    191 H87        -9.6690   -5.8520   -0.4590 ho        1 MOL      0.388188
    192 H88        -9.1980   -5.9760   -1.8920 ho        1 MOL      0.388188
    193 O31       -10.4790   -2.2130   -0.5340 oh        1 MOL     -0.819457
    194 H89       -10.1780   -1.3120   -0.6760 ho        1 MOL      0.388188
    195 H90       -10.9210   -2.1940    0.3210 ho        1 MOL      0.388188
@<TRIPOS>BOND
     1    1    2 1   
     2    1    4 1   
     3    1    5 1   
     4    1    6 1   
     5    2    3 2   
     6    2    7 1   
     7    7    8 1   
     8    7   15 1   
     9    8    9 1   
    10    8   11 1   
    11    8   16 1   
    12    9   10 2   
    13    9   19 1   
    14   11   12 1   
    15   11   17 1   
    16   11   18 1   
    17   12   13 1   
    18   12   14 1   
    19   19   20 1   
    20   19   27 1   
    21   20   21 1   
    22   20   23 1   
    23   20   28 1   
    24   21   22 2   
    25   21   38 1   
    26   23   24 1   
    27   23   25 1   
    28   23   29 1   
    29   24   26 1   
    30   24   30 1   
    31   24   31 1   
    32   25   32 1   
    33   25   33 1   
    34   25   34 1   
    35   26   35 1   
    36   26   36 1   
    37   26   37 1   
    38   38   39 1   
    39   38   46 1   
    40   39   40 1   
    41   39   42 1   
    42   39   47 1   
    43   40   41 2   
    44   40   50 1   
    45   42   43 1   
    46   42   48 1   
    47   42   49 1   
    48   43   44 1   
    49   43   45 1   
    50   50   51 1   
    51   50   54 1   
    52   51   52 1   
    53   51   55 1   
    54   51   56 1   
    55   52   53 2   
    56   52   57 1   
    57   57   58 1   
    58   57   65 1   
    59   58   59 1   
    60   58   61 1   
    61   58   66 1   
    62   59   60 2   
    63   59   69 1   
    64   61   62 1   
    65   61   67 1   
    66   61   68 1   
    67   62   63 1   
    68   62   64 1   
    69   69   70 1   
    70   69   73 1   
    71   70   71 1   
    72   70   74 1   
    73   70   75 1   
    74   71   72 2   
    75   71   76 1   
    76   76   77 1   
    77   76   85 1   
    78   77   78 1   
    79   77   80 1   
    80   77   86 1   
    81   78   79 2   
    82   78   93 1   
    83   80   81 1   
    84   80   87 1   
    85   80   88 1   
    86   81   82 1   
    87   81   89 1   
    88   81   90 1   
    89   82   83 1   
    90   82   84 2   
    91   83   91 1   
    92   83   92 1   
    93   93   94 1   
    94   93  100 1   
    95   94   95 1   
    96   94   97 1   
    97   94  101 1   
    98   95   96 2   
    99   95  109 1   
   100   97   98 1   
   101   97   99 1   
   102   97  102 1   
   103   98  103 1   
   104   98  104 1   
   105   98  105 1   
   106   99  106 1   
   107   99  107 1   
   108   99  108 1   
   109  109  110 1   
   110  109  117 1   
   111  110  111 1   
   112  110  113 1   
   113  110  118 1   
   114  111  112 2   
   115  111  123 1   
   116  113  114 1   
   117  113  119 1   
   118  113  120 1   
   119  114  115 1   
   120  114  116 2   
   121  115  121 1   
   122  115  122 1   
   123  123  124 1   
   124  123  135 1   
   125  124  125 1   
   126  124  127 1   
   127  124  136 1   
   128  125  126 2   
   129  125  144 1   
   130  127  128 1   
   131  127  137 1   
   132  127  138 1   
   133  128  129 ar  
   134  128  130 ar  
   135  129  131 ar  
   136  129  139 1   
   137  130  132 ar  
   138  130  140 1   
   139  131  133 ar  
   140  131  141 1   
   141  132  133 ar  
   142  132  142 1   
   143  133  134 1   
   144  134  143 1   
   145  144  145 1   
   146  144  153 1   
   147  145  146 1   
   148  145  148 1   
   149  145  154 1   
   150  146  147 2   
   151  146  159 1   
   152  148  149 1   
   153  148  155 1   
   154  148  156 1   
   155  149  150 1   
   156  149  157 1   
   157  149  158 1   
   158  150  151 1   
   159  150  152 1   
   160  159  160 1   
   161  159  168 1   
   162  160  161 1   
   163  160  163 1   
   164  160  169 1   
   165  161  162 2   
   166  161  174 1   
   167  163  164 1   
   168  163  170 1   
   169  163  171 1   
   170  164  165 1   
   171  164  172 1   
   172  164  173 1   
   173  165  166 1   
   174  165  167 1   
   175  174  175 1   
   176  174  179 1   
   177  175  176 1   
   178  175  177 1   
   179  175  178 1   
   180  181  182 1   
   181  181  183 1   
   182  184  185 1   
   183  184  186 1   
   184  187  188 1   
   185  187  189 1   
   186  190  191 1   
   187  190  192 1   
   188  193  194 1   
   189  193  195 1   
@<TRIPOS>SUBSTRUCTURE
     1 MOL         1 TEMP              0 ****  ****    0 ROOT
