@<TRIPOS>MOLECULE
MOL
  182   178     1     0     0
SMALL
resp


@<TRIPOS>ATOM
      1 C1          0.5030   -3.8220    5.9740 c3        1 MOL     -0.487368
      2 C2          0.5920   -3.7830    4.4240 c         1 MOL      0.734696
      3 O1         -0.3930   -3.8950    3.7280 o         1 MOL     -0.575037
      4 H1         -0.0100   -2.9290    6.3310 hc        1 MOL      0.135173
      5 H2         -0.0520   -4.7070    6.2850 hc        1 MOL      0.135173
      6 H3          1.5070   -3.8560    6.3950 hc        1 MOL      0.135173
      7 N1          1.7940   -3.7880    3.8780 n         1 MOL     -0.525425
      8 C3          2.0310   -3.4340    2.4910 c3        1 MOL      0.030446
      9 C4          1.9670   -4.6510    1.5010 c         1 MOL      0.683151
     10 O2          2.0770   -5.7800    1.9370 o         1 MOL     -0.562125
     11 C5          3.3620   -2.7180    2.3930 c3        1 MOL     -0.076577
     12 C6          3.4850   -1.5890    1.2980 c         1 MOL      0.631584
     13 O3          3.8610   -0.4500    1.5370 o         1 MOL     -0.653865
     14 O4          3.3570   -1.9860    0.1220 o         1 MOL     -0.653865
     15 H4          2.5720   -3.8280    4.5130 hn        1 MOL      0.308099
     16 H5          1.3180   -2.6600    2.1970 h1        1 MOL     -0.061278
     17 H6          4.2160   -3.3710    2.2580 hc        1 MOL      0.036746
     18 H7          3.5640   -2.1590    3.3030 hc        1 MOL      0.036746
     19 N2          1.9540   -4.3920    0.1600 n         1 MOL     -0.540371
     20 C7          2.0830   -5.3930   -0.8820 c3        1 MOL      0.026092
     21 C8          3.2020   -5.0940   -1.8930 c         1 MOL      0.458706
     22 O5          3.3690   -5.9880   -2.7410 o         1 MOL     -0.556841
     23 C9          0.7160   -5.5300   -1.6180 c3        1 MOL     -0.022181
     24 C10        -0.3580   -6.1200   -0.6890 c3        1 MOL      0.024264
     25 C11        -1.6990   -6.0780   -1.4750 c3        1 MOL      0.105043
     26 C12        -2.9300   -6.6810   -0.8040 c3        1 MOL      0.005119
     27 N3         -4.1370   -6.3540   -1.6180 n4        1 MOL     -0.204262
     28 H8          1.9340   -3.4330   -0.1740 hn        1 MOL      0.366642
     29 H9          2.2850   -6.3790   -0.4580 h1        1 MOL      0.109482
     30 H10         0.8940   -6.1960   -2.4670 hc        1 MOL      0.005342
     31 H11         0.4020   -4.5460   -1.9430 hc        1 MOL      0.005342
     32 H12        -0.5220   -5.5410    0.2220 hc        1 MOL      0.023709
     33 H13        -0.1650   -7.1780   -0.5170 hc        1 MOL      0.023709
     34 H14        -1.5830   -6.5570   -2.4430 hc        1 MOL     -0.025991
     35 H15        -1.9300   -5.0160   -1.5810 hc        1 MOL     -0.025991
     36 H16        -3.0640   -6.3780    0.2350 hx        1 MOL      0.076113
     37 H17        -2.7190   -7.7500   -0.7810 hx        1 MOL      0.076113
     38 H18        -4.9600   -6.8790   -1.3680 hn        1 MOL      0.247988
     39 H19        -4.3590   -5.3660   -1.5510 hn        1 MOL      0.247988
     40 H20        -3.9690   -6.5130   -2.5940 hn        1 MOL      0.247988
     41 N4          3.9040   -3.9500   -1.8410 n         1 MOL     -0.172836
     42 C13         5.1800   -3.6700   -2.6350 c3        1 MOL      0.001954
     43 C14         6.3630   -3.3340   -1.7590 c         1 MOL      0.392761
     44 O6          7.4980   -3.4240   -2.2620 o         1 MOL     -0.503891
     45 C15         4.9790   -2.5510   -3.6630 c3        1 MOL     -0.080647
     46 C16         4.3920   -1.3160   -3.0040 c         1 MOL      0.630940
     47 O7          5.0990   -0.6780   -2.1720 o         1 MOL     -0.719187
     48 O8          3.1820   -1.1640   -3.2030 o         1 MOL     -0.719187
     49 H21         3.5420   -3.3010   -1.1620 hn        1 MOL      0.014313
     50 H22         5.4140   -4.5800   -3.1940 h1        1 MOL      0.104162
     51 H23         4.2880   -2.8760   -4.4370 hc        1 MOL      0.047700
     52 H24         5.9380   -2.3730   -4.1570 hc        1 MOL      0.047700
     53 N5          6.1350   -2.9010   -0.5010 n         1 MOL     -0.150415
     54 C17         7.0980   -2.7710    0.5750 c3        1 MOL     -0.164788
     55 C18         7.5400   -1.3500    0.8380 c         1 MOL      0.659169
     56 O9          8.0870   -1.1690    1.9290 o         1 MOL     -0.607476
     57 H25         5.1970   -2.6710   -0.2100 hn        1 MOL      0.122744
     58 H26         7.9700   -3.4200    0.4520 h1        1 MOL      0.103929
     59 H27         6.5760   -3.1450    1.4590 h1        1 MOL      0.103929
     60 N6          7.3820   -0.3270    0.0060 n         1 MOL     -0.397967
     61 C19         7.6510    1.1050    0.2310 c3        1 MOL      0.216410
     62 C20         6.3680    1.9570   -0.0140 c         1 MOL      0.521699
     63 O10         5.2460    1.4460   -0.0970 o         1 MOL     -0.457592
     64 C21         8.8930    1.5180   -0.6380 c3        1 MOL     -0.447982
     65 C22        10.1100    0.5430   -0.5800 c         1 MOL      0.685452
     66 N7         10.9320    0.6670    0.3700 n         1 MOL     -0.716238
     67 O11        10.2370   -0.2990   -1.4530 o         1 MOL     -0.552911
     68 H28         6.8600   -0.5550   -0.8310 hn        1 MOL      0.297722
     69 H29         7.9550    1.2910    1.2660 h1        1 MOL      0.032390
     70 H30         9.2480    2.5100   -0.3700 hc        1 MOL      0.102542
     71 H31         8.5430    1.4870   -1.6700 hc        1 MOL      0.102542
     72 H32        10.8810    1.4670    0.9900 hn        1 MOL      0.352385
     73 H33        11.7440    0.0720    0.4120 hn        1 MOL      0.352385
     74 N8          6.5650    3.2980    0.1130 n         1 MOL     -0.540127
     75 C23         5.5470    4.3840   -0.1160 c3        1 MOL     -0.046228
     76 C24         4.3180    4.4680    0.8200 c         1 MOL      0.595821
     77 O12         4.3730    4.1190    1.9550 o         1 MOL     -0.492061
     78 H34         7.4620    3.5230    0.5070 hn        1 MOL      0.345178
     79 H35         5.1950    4.3110   -1.1480 h1        1 MOL      0.076781
     80 H36         6.0760    5.3260   -0.0400 h1        1 MOL      0.076781
     81 N9          3.1960    4.8940    0.2550 n         1 MOL     -0.542645
     82 C25         1.8000    4.8650    0.7610 c3        1 MOL      0.064838
     83 C26         1.4020    3.3630    0.8460 c         1 MOL      0.725423
     84 O13         1.9620    2.4810    0.1700 o         1 MOL     -0.585927
     85 C27         0.8880    5.6000   -0.2170 c3        1 MOL     -0.207384
     86 C28         1.2650    7.1260   -0.3540 ca        1 MOL      0.052618
     87 C29         1.3710    7.9070    0.7950 ca        1 MOL     -0.145198
     88 C30         1.5170    7.6420   -1.6400 ca        1 MOL     -0.145198
     89 C31         1.5820    9.3130    0.6320 ca        1 MOL     -0.243331
     90 C32         1.8530    8.9720   -1.8400 ca        1 MOL     -0.243331
     91 C33         1.9530    9.7720   -0.6810 ca        1 MOL      0.306877
     92 O14         2.1160   11.0590   -1.0100 oh        1 MOL     -0.467871
     93 H37         3.2740    5.0930   -0.7350 hn        1 MOL      0.282830
     94 H38         1.7620    5.3000    1.7680 h1        1 MOL      0.085114
     95 H39        -0.1610    5.5590    0.0550 hc        1 MOL      0.079128
     96 H40         1.0180    5.1650   -1.2150 hc        1 MOL      0.079128
     97 H41         1.1710    7.5580    1.8030 ha        1 MOL      0.137561
     98 H42         1.3940    7.0500   -2.5320 ha        1 MOL      0.137561
     99 H43         1.5640   10.0140    1.4570 ha        1 MOL      0.155864
    100 H44         1.8260    9.4770   -2.7940 ha        1 MOL      0.155864
    101 H45         1.7340   11.6910   -0.4030 ho        1 MOL      0.371467
    102 N10         0.4880    3.1040    1.6870 n         1 MOL     -0.733626
    103 C34        -0.0570    1.7790    2.2070 c3        1 MOL      0.425751
    104 C35        -0.1520    0.6450    1.1420 c         1 MOL      0.170730
    105 O15         0.8200    0.1090    0.6970 o         1 MOL     -0.364379
    106 C36         0.8040    1.2420    3.3490 c3        1 MOL      0.207886
    107 C37         0.1580    0.0130    4.0280 c3        1 MOL     -0.086277
    108 C38         1.1080    2.3780    4.2840 c3        1 MOL     -0.233496
    109 C39        -1.2010    0.3070    4.7660 c3        1 MOL     -0.151186
    110 H46         0.0160    3.9330    2.0310 hn        1 MOL      0.313888
    111 H47        -1.0750    1.8710    2.5810 h1        1 MOL     -0.012777
    112 H48         1.7330    0.9020    2.8870 hc        1 MOL     -0.018213
    113 H49         0.8410   -0.4140    4.7480 hc        1 MOL      0.050742
    114 H50        -0.0410   -0.8630    3.4020 hc        1 MOL      0.050742
    115 H51         0.1740    2.8650    4.5630 hc        1 MOL      0.056418
    116 H52         1.5690    2.0210    5.2010 hc        1 MOL      0.056418
    117 H53         1.8320    3.0590    3.8510 hc        1 MOL      0.056418
    118 H54        -1.3580    1.2820    5.2320 hc        1 MOL      0.032048
    119 H55        -1.9610    0.1920    3.9930 hc        1 MOL      0.032048
    120 H56        -1.2940   -0.5100    5.4790 hc        1 MOL      0.032048
    121 N11        -1.4410    0.3020    0.7990 n         1 MOL     -0.282392
    122 C40        -1.7660   -0.9170   -0.0470 c3        1 MOL     -0.060604
    123 C41        -3.2170   -0.8520   -0.6130 c         1 MOL      0.688715
    124 O16        -3.5220   -1.6290   -1.5320 o         1 MOL     -0.568406
    125 C42        -1.5450   -2.2230    0.8040 c3        1 MOL      0.137051
    126 O17        -2.5600   -2.3260    1.7740 oh        1 MOL     -0.591561
    127 H57        -2.1700    0.9660    1.0070 hn        1 MOL      0.205962
    128 H58        -1.0150   -1.0520   -0.8320 h1        1 MOL      0.033989
    129 H59        -0.5810   -2.2460    1.2980 h1        1 MOL      0.046768
    130 H60        -1.7620   -3.0440    0.1160 h1        1 MOL      0.046768
    131 H61        -2.1630   -2.2890    2.6400 ho        1 MOL      0.395769
    132 N12        -4.0720    0.0780   -0.1800 n         1 MOL     -0.717424
    133 C43        -5.5630   -0.0220   -0.4970 c3        1 MOL      0.258695
    134 C44        -5.8970    0.6660   -1.8770 c         1 MOL      0.500518
    135 O18        -5.0460    1.3790   -2.5090 o         1 MOL     -0.545181
    136 C45        -6.2640    0.4990    0.7510 c3        1 MOL     -0.369927
    137 H62        -3.7450    0.6490    0.5830 hn        1 MOL      0.373333
    138 H63        -5.8020   -1.0910   -0.5110 h1        1 MOL      0.093868
    139 H64        -7.3310    0.2780    0.6910 hc        1 MOL      0.106506
    140 H65        -5.7670   -0.0170    1.5730 hc        1 MOL      0.106506
    141 H66        -6.1050    1.5640    0.8570 hc        1 MOL      0.106506
    142 N13        -7.0720    0.6080   -2.4530 n         1 MOL     -0.550637
    143 C46        -8.3430   -0.0530   -2.0570 c3        1 MOL      0.422136
    144 C47        -9.5920    0.5790   -2.6380 c         1 MOL      0.243156
    145 O19        -9.5500    0.9690   -3.8140 o         1 MOL     -0.505723
    146 C48        -8.1730   -1.5260   -2.4460 c3        1 MOL     -0.099556
    147 H67        -7.1390    1.2540   -3.2310 hn        1 MOL      0.321825
    148 H68        -8.4910   -0.0700   -0.9860 h1        1 MOL     -0.033744
    149 H69        -7.3630   -1.9180   -1.8340 hc        1 MOL      0.023396
    150 H70        -9.0590   -2.0730   -2.1420 hc        1 MOL      0.023396
    151 H71        -7.8560   -1.6330   -3.4880 hc        1 MOL      0.023396
    152 N14       -10.7650    0.6870   -1.9980 n         1 MOL     -0.220322
    153 C49       -10.9930    0.4170   -0.5920 c3        1 MOL     -0.236829
    154 C50       -10.2390    1.3650    0.2930 c         1 MOL      0.577700
    155 O20        -9.6920    1.0630    1.3590 o         1 MOL     -0.531416
    156 C51       -12.4660    0.3950   -0.2540 c3        1 MOL      0.122235
    157 C52       -12.7830   -0.7080    0.7600 c3        1 MOL     -0.203556
    158 C53       -14.1430   -0.5190    1.4390 c         1 MOL      0.749471
    159 O21       -14.4070   -1.0330    2.5330 o         1 MOL     -0.691119
    160 O22       -14.9940    0.1090    0.8000 o         1 MOL     -0.691119
    161 H72       -11.5210    1.1140   -2.5150 hn        1 MOL      0.255696
    162 H73       -10.6580   -0.6110   -0.4650 h1        1 MOL      0.088363
    163 H74       -13.0320    0.1140   -1.1450 hc        1 MOL      0.008496
    164 H75       -12.8710    1.3790   -0.0050 hc        1 MOL      0.008496
    165 H76       -12.0380   -0.7090    1.5420 hc        1 MOL      0.029432
    166 H77       -12.8700   -1.7070    0.3190 hc        1 MOL      0.029432
    167 N15       -10.1750    2.5850   -0.1260 n         1 MOL     -0.291081
    168 C54        -9.3680    3.6490    0.4910 c3        1 MOL     -0.213043
    169 H78        -8.9880    3.3050    1.4530 h1        1 MOL      0.104027
    170 H79        -8.5310    3.8960   -0.1620 h1        1 MOL      0.104027
    171 H80        -9.9860    4.5350    0.6410 h1        1 MOL      0.104027
    172 H81       -10.6420    2.8920   -0.9730 hn        1 MOL      0.249581
    173 Ca1         2.9040    0.2750   -0.9510 Ca        1 MOL      1.716408
    174 O23         0.6930    1.4070   -2.2020 oh        1 MOL     -0.827502
    175 H82         0.2240    0.9900   -2.9300 ho        1 MOL      0.413104
    176 H83         0.0540    1.9950   -1.8120 ho        1 MOL      0.413104
    177 O24         1.1540   -2.2480   -1.7830 oh        1 MOL     -0.827502
    178 H84         0.3560   -2.6040   -2.1550 ho        1 MOL      0.413104
    179 H85         1.7440   -2.1510   -2.5260 ho        1 MOL      0.413104
    180 O25         3.5810    2.2640   -2.4190 oh        1 MOL     -0.827502
    181 H86         3.1100    2.2220   -3.2520 ho        1 MOL      0.413104
    182 H87         4.4350    2.6430   -2.6440 ho        1 MOL      0.413104
@<TRIPOS>BOND
     1    1    2 1   
     2    1    4 1   
     3    1    5 1   
     4    1    6 1   
     5    2    3 2   
     6    2    7 1   
     7    7    8 1   
     8    7   15 1   
     9    8    9 1   
    10    8   11 1   
    11    8   16 1   
    12    9   10 2   
    13    9   19 1   
    14   11   12 1   
    15   11   17 1   
    16   11   18 1   
    17   12   13 1   
    18   12   14 1   
    19   19   20 1   
    20   19   28 1   
    21   20   21 1   
    22   20   23 1   
    23   20   29 1   
    24   21   22 2   
    25   21   41 1   
    26   23   24 1   
    27   23   30 1   
    28   23   31 1   
    29   24   25 1   
    30   24   32 1   
    31   24   33 1   
    32   25   26 1   
    33   25   34 1   
    34   25   35 1   
    35   26   27 1   
    36   26   36 1   
    37   26   37 1   
    38   27   38 1   
    39   27   39 1   
    40   27   40 1   
    41   41   42 1   
    42   41   49 1   
    43   42   43 1   
    44   42   45 1   
    45   42   50 1   
    46   43   44 2   
    47   43   53 1   
    48   45   46 1   
    49   45   51 1   
    50   45   52 1   
    51   46   47 1   
    52   46   48 1   
    53   53   54 1   
    54   53   57 1   
    55   54   55 1   
    56   54   58 1   
    57   54   59 1   
    58   55   56 2   
    59   55   60 1   
    60   60   61 1   
    61   60   68 1   
    62   61   62 1   
    63   61   64 1   
    64   61   69 1   
    65   62   63 2   
    66   62   74 1   
    67   64   65 1   
    68   64   70 1   
    69   64   71 1   
    70   65   66 1   
    71   65   67 2   
    72   66   72 1   
    73   66   73 1   
    74   74   75 1   
    75   74   78 1   
    76   75   76 1   
    77   75   79 1   
    78   75   80 1   
    79   76   77 2   
    80   76   81 1   
    81   81   82 1   
    82   81   93 1   
    83   82   83 1   
    84   82   85 1   
    85   82   94 1   
    86   83   84 2   
    87   83  102 1   
    88   85   86 1   
    89   85   95 1   
    90   85   96 1   
    91   86   87 ar  
    92   86   88 ar  
    93   87   89 ar  
    94   87   97 1   
    95   88   90 ar  
    96   88   98 1   
    97   89   91 ar  
    98   89   99 1   
    99   90   91 ar  
   100   90  100 1   
   101   91   92 1   
   102   92  101 1   
   103  102  103 1   
   104  102  110 1   
   105  103  104 1   
   106  103  106 1   
   107  103  111 1   
   108  104  105 2   
   109  104  121 1   
   110  106  107 1   
   111  106  108 1   
   112  106  112 1   
   113  107  109 1   
   114  107  113 1   
   115  107  114 1   
   116  108  115 1   
   117  108  116 1   
   118  108  117 1   
   119  109  118 1   
   120  109  119 1   
   121  109  120 1   
   122  121  122 1   
   123  121  127 1   
   124  122  123 1   
   125  122  125 1   
   126  122  128 1   
   127  123  124 2   
   128  123  132 1   
   129  125  126 1   
   130  125  129 1   
   131  125  130 1   
   132  126  131 1   
   133  132  133 1   
   134  132  137 1   
   135  133  134 1   
   136  133  136 1   
   137  133  138 1   
   138  134  135 2   
   139  134  142 1   
   140  136  139 1   
   141  136  140 1   
   142  136  141 1   
   143  142  143 1   
   144  142  147 1   
   145  143  144 1   
   146  143  146 1   
   147  143  148 1   
   148  144  145 2   
   149  144  152 1   
   150  146  149 1   
   151  146  150 1   
   152  146  151 1   
   153  152  153 1   
   154  152  161 1   
   155  153  154 1   
   156  153  156 1   
   157  153  162 1   
   158  154  155 2   
   159  154  167 1   
   160  156  157 1   
   161  156  163 1   
   162  156  164 1   
   163  157  158 1   
   164  157  165 1   
   165  157  166 1   
   166  158  159 1   
   167  158  160 1   
   168  167  168 1   
   169  167  172 1   
   170  168  169 1   
   171  168  170 1   
   172  168  171 1   
   173  174  175 1   
   174  174  176 1   
   175  177  178 1   
   176  177  179 1   
   177  180  181 1   
   178  180  182 1   
@<TRIPOS>SUBSTRUCTURE
     1 MOL         1 TEMP              0 ****  ****    0 ROOT
