@<TRIPOS>MOLECULE
MOL
  189   185     1     0     0
SMALL
resp


@<TRIPOS>ATOM
      1 C1          4.2130    4.2430   -3.6030 c3        1 MOL     -0.475601
      2 C2          4.8620    3.3370   -2.5730 c         1 MOL      0.800225
      3 O1          4.2930    2.9610   -1.5360 o         1 MOL     -0.686878
      4 H1          3.5810    3.6490   -4.2620 hc        1 MOL      0.123597
      5 H2          3.6060    4.9930   -3.0980 hc        1 MOL      0.123597
      6 H3          4.9870    4.7370   -4.1920 hc        1 MOL      0.123597
      7 N1          6.1180    2.9270   -2.8250 n         1 MOL     -0.550012
      8 C3          6.9370    1.9980   -2.0270 c3        1 MOL      0.290057
      9 C4          6.0700    0.7350   -1.7750 c         1 MOL      0.262703
     10 O2          5.7770    0.3950   -0.6110 o         1 MOL     -0.475014
     11 C5          7.6890    2.5190   -0.7840 c3        1 MOL     -0.045740
     12 C6          7.1610    3.6110    0.0750 c         1 MOL      0.622258
     13 O3          6.0590    3.4260    0.6340 o         1 MOL     -0.691304
     14 O4          7.7070    4.7370    0.0570 o         1 MOL     -0.691304
     15 H4          6.5450    3.2450   -3.6890 hn        1 MOL      0.267180
     16 H5          7.6690    1.5480   -2.7100 h1        1 MOL     -0.000023
     17 H6          8.6750    2.7850   -1.1700 hc        1 MOL     -0.017879
     18 H7          7.8710    1.7220   -0.0570 hc        1 MOL     -0.017879
     19 N2          5.6990    0.1210   -2.8820 n         1 MOL     -0.360814
     20 C7          5.1000   -1.2360   -2.9890 c3        1 MOL      0.162580
     21 C8          5.9600   -2.3310   -2.4100 c         1 MOL      0.226963
     22 O5          6.3630   -3.3180   -3.0430 o         1 MOL     -0.553701
     23 C9          3.6400   -1.1950   -2.4260 c3        1 MOL      0.348257
     24 C10         2.8810   -2.4900   -2.6730 c3        1 MOL     -0.113802
     25 C11         2.7780   -0.1140   -3.1400 c3        1 MOL     -0.372584
     26 C12         2.9720   -3.1270   -4.0740 c3        1 MOL     -0.222724
     27 H8          5.8170    0.6350   -3.7430 hn        1 MOL      0.224074
     28 H9          5.0880   -1.4630   -4.0540 h1        1 MOL      0.019886
     29 H10         3.5990   -1.0620   -1.3490 hc        1 MOL     -0.133014
     30 H11         1.8340   -2.3790   -2.3950 hc        1 MOL      0.083973
     31 H12         3.3120   -3.3020   -2.0780 hc        1 MOL      0.083973
     32 H13         3.3120    0.8320   -3.0810 hc        1 MOL      0.073531
     33 H14         2.5680   -0.3850   -4.1770 hc        1 MOL      0.073531
     34 H15         1.8260   -0.0700   -2.6050 hc        1 MOL      0.073531
     35 H16         2.7230   -4.1840   -3.9410 hc        1 MOL      0.040101
     36 H17         2.3450   -2.6440   -4.8270 hc        1 MOL      0.040101
     37 H18         4.0220   -3.1850   -4.3410 hc        1 MOL      0.040101
     38 N3          6.3230   -2.2310   -1.1600 n         1 MOL      0.076194
     39 C13         7.1960   -3.0330   -0.3480 c3        1 MOL     -0.128407
     40 C14         6.5610   -4.3630    0.0310 c         1 MOL      0.594250
     41 O6          7.2530   -5.3740   -0.0530 o         1 MOL     -0.559292
     42 C15         7.6820   -2.2730    0.9200 c3        1 MOL     -0.433381
     43 C16         8.5630   -3.1240    1.8440 c         1 MOL      0.772632
     44 O7          9.7110   -3.5310    1.5630 o         1 MOL     -0.708953
     45 O8          8.1100   -3.3790    3.0030 o         1 MOL     -0.708953
     46 H19         6.0260   -1.3540   -0.7450 hn        1 MOL      0.146579
     47 H20         8.1330   -3.1230   -0.8920 h1        1 MOL      0.092792
     48 H21         6.8190   -1.9760    1.5110 hc        1 MOL      0.133600
     49 H22         8.1700   -1.3540    0.5940 hc        1 MOL      0.133600
     50 N4          5.2850   -4.5470    0.3800 n         1 MOL     -0.504896
     51 C17         4.4180   -3.4690    0.9470 c3        1 MOL      0.214497
     52 C18         3.2680   -4.0930    1.6710 c         1 MOL      0.509441
     53 O9          2.9310   -5.2600    1.4040 o         1 MOL     -0.577853
     54 H23         4.8630   -5.4590    0.2900 hn        1 MOL      0.288822
     55 H24         3.9380   -2.9930    0.0840 h1        1 MOL      0.006836
     56 H25         4.8920   -2.7210    1.5710 h1        1 MOL      0.006836
     57 N5          2.5340   -3.4360    2.5850 n         1 MOL     -0.498123
     58 C19         2.6560   -1.9880    2.9800 c3        1 MOL      0.292768
     59 C20         2.5710   -1.0070    1.7860 c         1 MOL      0.179296
     60 O10         3.5850   -0.4200    1.4430 o         1 MOL     -0.468922
     61 C21         3.9060   -1.8780    3.8770 c3        1 MOL     -0.368901
     62 C22         4.0720   -0.5540    4.5980 c         1 MOL      0.804619
     63 O11         5.0590   -0.3140    5.3450 o         1 MOL     -0.725824
     64 O12         3.2170    0.3290    4.6080 o         1 MOL     -0.725824
     65 H26         1.8620   -4.0120    3.0710 hn        1 MOL      0.279095
     66 H27         1.8450   -1.6620    3.6450 h1        1 MOL      0.045299
     67 H28         4.8480   -2.0570    3.3570 hc        1 MOL      0.091066
     68 H29         3.7690   -2.6660    4.6200 hc        1 MOL      0.091066
     69 N6          1.4140   -0.7730    1.1310 n         1 MOL     -0.031553
     70 C23         0.0810   -1.2780    1.3830 c3        1 MOL     -0.341239
     71 C24        -0.2900   -2.4180    0.4940 c         1 MOL      0.580548
     72 O13         0.5270   -3.0990   -0.1120 o         1 MOL     -0.518182
     73 H30         1.5440   -0.0320    0.4620 hn        1 MOL      0.199970
     74 H31        -0.6880   -0.5790    1.0770 h1        1 MOL      0.115281
     75 H32         0.0920   -1.6640    2.4040 h1        1 MOL      0.115281
     76 N7         -1.5670   -2.6850    0.4000 n         1 MOL     -0.345087
     77 C25        -2.1090   -3.8810   -0.2110 c3        1 MOL      0.005490
     78 C26        -2.5610   -3.6400   -1.6710 c         1 MOL      0.413990
     79 O14        -2.7080   -4.5890   -2.3990 o         1 MOL     -0.532506
     80 C27        -3.2700   -4.4340    0.6430 c3        1 MOL     -0.051507
     81 C28        -4.7040   -3.9100    0.4650 c3        1 MOL     -0.071915
     82 C29        -5.7240   -4.7230    1.2650 c         1 MOL      0.488612
     83 N8         -5.6690   -6.0610    1.2730 n         1 MOL     -0.759352
     84 O15        -6.6220   -4.1240    1.8690 o         1 MOL     -0.444667
     85 H33        -2.2110   -2.1630    0.9780 hn        1 MOL      0.228515
     86 H34        -1.3390   -4.6500   -0.2120 h1        1 MOL      0.126521
     87 H35        -2.9560   -4.4060    1.6870 hc        1 MOL      0.027544
     88 H36        -3.3440   -5.4780    0.3660 hc        1 MOL      0.027544
     89 H37        -4.9250   -3.9480   -0.5960 hc        1 MOL      0.061770
     90 H38        -4.8700   -2.8470    0.6570 hc        1 MOL      0.061770
     91 H39        -5.0240   -6.4970    0.6270 hn        1 MOL      0.367510
     92 H40        -6.4630   -6.5870    1.5990 hn        1 MOL      0.367510
     93 N9         -2.8030   -2.4200   -2.0240 n         1 MOL     -0.229992
     94 C30        -3.3650   -2.0080   -3.3610 c3        1 MOL     -0.139706
     95 C31        -4.8420   -1.6110   -3.2470 c         1 MOL      0.503694
     96 O16        -5.5030   -1.4760   -4.3230 o         1 MOL     -0.560002
     97 C32        -2.4950   -1.0170   -4.0890 c3        1 MOL      0.236366
     98 C33        -1.1460   -1.5740   -4.3780 c3        1 MOL     -0.178964
     99 C34        -2.1690    0.3000   -3.4070 c3        1 MOL     -0.178964
    100 H41        -2.5490   -1.7270   -1.3190 hn        1 MOL      0.170770
    101 H42        -3.4150   -2.8760   -4.0160 h1        1 MOL      0.131354
    102 H43        -2.9650   -0.8990   -5.0640 hc        1 MOL      0.004040
    103 H44        -0.7480   -2.1890   -3.5820 hc        1 MOL      0.033293
    104 H45        -1.2310   -2.2900   -5.1970 hc        1 MOL      0.033293
    105 H46        -0.4680   -0.7680   -4.6280 hc        1 MOL      0.033293
    106 H47        -3.1470    0.7360   -3.2390 hc        1 MOL      0.033293
    107 H48        -1.6600    0.2420   -2.4440 hc        1 MOL      0.033293
    108 H49        -1.6710    1.0610   -4.0070 hc        1 MOL      0.033293
    109 N10        -5.4050   -1.3440   -2.0770 n         1 MOL     -0.323821
    110 C35        -6.7980   -0.9800   -1.8690 c3        1 MOL     -0.049968
    111 C36        -7.0430    0.3160   -1.0730 c         1 MOL      0.637550
    112 O17        -8.0490    0.9740   -1.3380 o         1 MOL     -0.572377
    113 C37        -7.6710   -2.1330   -1.2080 c3        1 MOL     -0.324900
    114 C38        -7.7480   -3.4520   -1.9810 c         1 MOL      0.711891
    115 N11        -7.9310   -3.4600   -3.2510 n         1 MOL     -0.791130
    116 O18        -7.6960   -4.5120   -1.4330 o         1 MOL     -0.587451
    117 H50        -4.8310   -1.4300   -1.2480 hn        1 MOL      0.270191
    118 H51        -7.1500   -0.7770   -2.8860 h1        1 MOL      0.098356
    119 H52        -8.6990   -1.8060   -1.0900 hc        1 MOL      0.129328
    120 H53        -7.2650   -2.3880   -0.2200 hc        1 MOL      0.129328
    121 H54        -7.8830   -2.6730   -3.8800 hn        1 MOL      0.358639
    122 H55        -8.0640   -4.3480   -3.6950 hn        1 MOL      0.358639
    123 N12        -6.0810    0.7530   -0.2560 n         1 MOL     -0.540109
    124 C39        -6.0160    1.9230    0.6100 c3        1 MOL      0.550257
    125 C40        -4.7050    2.7460    0.3850 c         1 MOL      0.177534
    126 O19        -3.7220    2.2490   -0.1050 o         1 MOL     -0.420383
    127 C41        -6.1100    1.5350    2.0910 c3        1 MOL     -0.185767
    128 C42        -7.3930    0.7730    2.3390 ca        1 MOL     -0.011886
    129 C43        -8.6630    1.4070    2.3760 ca        1 MOL     -0.101644
    130 C44        -7.3480   -0.6120    2.6240 ca        1 MOL     -0.101644
    131 C45        -9.8560    0.7200    2.6460 ca        1 MOL     -0.318049
    132 C46        -8.5660   -1.3590    2.8800 ca        1 MOL     -0.318049
    133 C47        -9.7820   -0.6810    2.9140 ca        1 MOL      0.397540
    134 O20       -10.9250   -1.3460    3.3020 oh        1 MOL     -0.522123
    135 H56        -5.1900    0.2730   -0.2390 hn        1 MOL      0.203316
    136 H57        -6.8760    2.5560    0.3760 h1        1 MOL     -0.060185
    137 H58        -6.3550    2.3840    2.7280 hc        1 MOL      0.077006
    138 H59        -5.2260    0.9680    2.4010 hc        1 MOL      0.077006
    139 H60        -8.6260    2.4560    2.1320 ha        1 MOL      0.095126
    140 H61        -6.3870   -1.0910    2.7140 ha        1 MOL      0.095126
    141 H62       -10.8130    1.2110    2.5740 ha        1 MOL      0.144711
    142 H63        -8.5520   -2.4030    3.1490 ha        1 MOL      0.144711
    143 H64       -11.6780   -0.8000    3.5280 ho        1 MOL      0.357431
    144 N13        -4.6860    3.9520    0.9930 n         1 MOL     -0.397966
    145 C48        -3.6110    4.9080    1.4510 c3        1 MOL     -0.011561
    146 C49        -2.4220    5.2540    0.5270 c         1 MOL      0.264270
    147 O21        -1.8350    6.3750    0.5610 o         1 MOL     -0.502906
    148 C50        -3.0550    4.5120    2.8720 c3        1 MOL      0.053528
    149 C51        -2.2870    3.1660    2.8730 c3        1 MOL      0.074356
    150 C52        -1.4820    2.9060    4.1270 c         1 MOL      0.654028
    151 O22        -2.1050    2.4160    5.0720 o         1 MOL     -0.709914
    152 O23        -0.3090    3.2200    4.1080 o         1 MOL     -0.709914
    153 H65        -5.6070    4.2100    1.3120 hn        1 MOL      0.276065
    154 H66        -4.1650    5.8370    1.6320 h1        1 MOL      0.056526
    155 H67        -3.8470    4.4590    3.6170 hc        1 MOL      0.003606
    156 H68        -2.4230    5.3140    3.2440 hc        1 MOL      0.003606
    157 H69        -1.5500    3.0780    2.0740 hc        1 MOL     -0.054946
    158 H70        -3.0670    2.4100    2.8080 hc        1 MOL     -0.054946
    159 N14        -2.0400    4.3110   -0.3520 n         1 MOL      0.080572
    160 C53        -1.0710    4.5280   -1.4480 c3        1 MOL     -0.452641
    161 C54        -1.6710    5.4970   -2.5800 c         1 MOL      0.641995
    162 O24        -0.8790    6.0710   -3.2760 o         1 MOL     -0.533258
    163 C55        -0.6830    3.2690   -2.0950 c3        1 MOL      0.049325
    164 C56        -0.1840    2.2700   -1.0210 c3        1 MOL      0.253948
    165 C57         1.2540    2.4390   -0.5040 c         1 MOL      0.596476
    166 O25         1.5650    3.4690    0.1250 o         1 MOL     -0.616088
    167 O26         1.9980    1.4600   -0.4830 o         1 MOL     -0.616088
    168 H71        -2.4930    3.4150   -0.3080 hn        1 MOL      0.158264
    169 H72        -0.1860    5.0120   -1.0300 h1        1 MOL      0.197751
    170 H73         0.1080    3.3840   -2.8390 hc        1 MOL      0.009682
    171 H74        -1.5410    2.9590   -2.7010 hc        1 MOL      0.009682
    172 H75        -0.1150    1.3540   -1.6110 hc        1 MOL     -0.090843
    173 H76        -0.8060    2.1670   -0.1310 hc        1 MOL     -0.090843
    174 N15        -3.0310    5.5710   -2.6840 n         1 MOL     -0.378159
    175 C58        -3.6750    6.4140   -3.7370 c3        1 MOL     -0.190006
    176 H77        -4.2900    5.7840   -4.3800 h1        1 MOL      0.089460
    177 H78        -4.3020    7.1710   -3.2650 h1        1 MOL      0.089460
    178 H79        -2.9050    6.9010   -4.3350 h1        1 MOL      0.089460
    179 H80        -3.5830    5.2370   -1.9050 hn        1 MOL      0.256841
    180 Ca1         3.8800    2.2650    0.9640 Ca        1 MOL      1.779420
    181 O27         5.5710    1.5460    2.8060 oh        1 MOL     -0.918125
    182 H81         6.4500    1.9200    2.7240 ho        1 MOL      0.432704
    183 H82         5.5610    1.1520    3.6750 ho        1 MOL      0.432704
    184 O28         3.4200    4.5230    2.4210 oh        1 MOL     -0.918125
    185 H83         4.0450    4.9530    3.0180 ho        1 MOL      0.432704
    186 H84         2.5610    4.8440    2.7090 ho        1 MOL      0.432704
    187 O29         2.0770    1.8560    2.8530 oh        1 MOL     -0.918125
    188 H85         1.2170    2.1280    3.1710 ho        1 MOL      0.432704
    189 H86         2.4870    1.4360    3.6120 ho        1 MOL      0.432704
@<TRIPOS>BOND
     1    1    2 1   
     2    1    4 1   
     3    1    5 1   
     4    1    6 1   
     5    2    3 2   
     6    2    7 1   
     7    7    8 1   
     8    7   15 1   
     9    8    9 1   
    10    8   11 1   
    11    8   16 1   
    12    9   10 2   
    13    9   19 1   
    14   11   12 1   
    15   11   17 1   
    16   11   18 1   
    17   12   13 1   
    18   12   14 1   
    19   19   20 1   
    20   19   27 1   
    21   20   21 1   
    22   20   23 1   
    23   20   28 1   
    24   21   22 2   
    25   21   38 1   
    26   23   24 1   
    27   23   25 1   
    28   23   29 1   
    29   24   26 1   
    30   24   30 1   
    31   24   31 1   
    32   25   32 1   
    33   25   33 1   
    34   25   34 1   
    35   26   35 1   
    36   26   36 1   
    37   26   37 1   
    38   38   39 1   
    39   38   46 1   
    40   39   40 1   
    41   39   42 1   
    42   39   47 1   
    43   40   41 2   
    44   40   50 1   
    45   42   43 1   
    46   42   48 1   
    47   42   49 1   
    48   43   44 1   
    49   43   45 1   
    50   50   51 1   
    51   50   54 1   
    52   51   52 1   
    53   51   55 1   
    54   51   56 1   
    55   52   53 2   
    56   52   57 1   
    57   57   58 1   
    58   57   65 1   
    59   58   59 1   
    60   58   61 1   
    61   58   66 1   
    62   59   60 2   
    63   59   69 1   
    64   61   62 1   
    65   61   67 1   
    66   61   68 1   
    67   62   63 1   
    68   62   64 1   
    69   69   70 1   
    70   69   73 1   
    71   70   71 1   
    72   70   74 1   
    73   70   75 1   
    74   71   72 2   
    75   71   76 1   
    76   76   77 1   
    77   76   85 1   
    78   77   78 1   
    79   77   80 1   
    80   77   86 1   
    81   78   79 2   
    82   78   93 1   
    83   80   81 1   
    84   80   87 1   
    85   80   88 1   
    86   81   82 1   
    87   81   89 1   
    88   81   90 1   
    89   82   83 1   
    90   82   84 2   
    91   83   91 1   
    92   83   92 1   
    93   93   94 1   
    94   93  100 1   
    95   94   95 1   
    96   94   97 1   
    97   94  101 1   
    98   95   96 2   
    99   95  109 1   
   100   97   98 1   
   101   97   99 1   
   102   97  102 1   
   103   98  103 1   
   104   98  104 1   
   105   98  105 1   
   106   99  106 1   
   107   99  107 1   
   108   99  108 1   
   109  109  110 1   
   110  109  117 1   
   111  110  111 1   
   112  110  113 1   
   113  110  118 1   
   114  111  112 2   
   115  111  123 1   
   116  113  114 1   
   117  113  119 1   
   118  113  120 1   
   119  114  115 1   
   120  114  116 2   
   121  115  121 1   
   122  115  122 1   
   123  123  124 1   
   124  123  135 1   
   125  124  125 1   
   126  124  127 1   
   127  124  136 1   
   128  125  126 2   
   129  125  144 1   
   130  127  128 1   
   131  127  137 1   
   132  127  138 1   
   133  128  129 ar  
   134  128  130 ar  
   135  129  131 ar  
   136  129  139 1   
   137  130  132 ar  
   138  130  140 1   
   139  131  133 ar  
   140  131  141 1   
   141  132  133 ar  
   142  132  142 1   
   143  133  134 1   
   144  134  143 1   
   145  144  145 1   
   146  144  153 1   
   147  145  146 1   
   148  145  148 1   
   149  145  154 1   
   150  146  147 2   
   151  146  159 1   
   152  148  149 1   
   153  148  155 1   
   154  148  156 1   
   155  149  150 1   
   156  149  157 1   
   157  149  158 1   
   158  150  151 1   
   159  150  152 1   
   160  159  160 1   
   161  159  168 1   
   162  160  161 1   
   163  160  163 1   
   164  160  169 1   
   165  161  162 2   
   166  161  174 1   
   167  163  164 1   
   168  163  170 1   
   169  163  171 1   
   170  164  165 1   
   171  164  172 1   
   172  164  173 1   
   173  165  166 1   
   174  165  167 1   
   175  174  175 1   
   176  174  179 1   
   177  175  176 1   
   178  175  177 1   
   179  175  178 1   
   180  181  182 1   
   181  181  183 1   
   182  184  185 1   
   183  184  186 1   
   184  187  188 1   
   185  187  189 1   
@<TRIPOS>SUBSTRUCTURE
     1 MOL         1 TEMP              0 ****  ****    0 ROOT
