@<TRIPOS>MOLECULE
MOL
  189   185     1     0     0
SMALL
resp


@<TRIPOS>ATOM
      1 C1         -4.7560   -4.3360   -3.3240 c3        1 MOL     -0.386909
      2 C2         -5.5300   -3.4450   -2.3280 c         1 MOL      0.886898
      3 O1         -4.9020   -3.1090   -1.3160 o         1 MOL     -0.684684
      4 H1         -5.4200   -5.1060   -3.7150 hc        1 MOL      0.094450
      5 H2         -4.3860   -3.7240   -4.1470 hc        1 MOL      0.094450
      6 H3         -3.9150   -4.8060   -2.8140 hc        1 MOL      0.094450
      7 N1         -6.7350   -2.9990   -2.6400 n         1 MOL     -0.930709
      8 C3         -7.4130   -1.8830   -1.9790 c3        1 MOL      0.537457
      9 C4         -6.3730   -0.8020   -1.6550 c         1 MOL      0.236771
     10 O2         -5.9320   -0.5930   -0.5110 o         1 MOL     -0.586163
     11 C5         -8.2420   -2.2820   -0.8000 c3        1 MOL     -0.170661
     12 C6         -7.7200   -3.4490    0.0700 c         1 MOL      0.786873
     13 O3         -6.8030   -3.1930    0.8760 o         1 MOL     -0.746678
     14 O4         -8.3140   -4.5740    0.1190 o         1 MOL     -0.746678
     15 H4         -7.1260   -3.4230   -3.4730 hn        1 MOL      0.375210
     16 H5         -8.1340   -1.3400   -2.5900 h1        1 MOL     -0.022629
     17 H6         -9.2160   -2.5190   -1.2120 hc        1 MOL      0.013532
     18 H7         -8.4340   -1.4270   -0.1540 hc        1 MOL      0.013532
     19 N2         -6.0520   -0.0670   -2.6720 n         1 MOL     -0.329093
     20 C7         -5.2160    1.1730   -2.7690 c3        1 MOL     -0.017289
     21 C8         -5.7200    2.4410   -2.0930 c         1 MOL      0.370185
     22 O5         -5.9180    3.4220   -2.8090 o         1 MOL     -0.543989
     23 C9         -3.6840    0.8160   -2.5790 c3        1 MOL      0.490640
     24 C10        -2.7510    1.9990   -2.8720 c3        1 MOL     -0.255087
     25 C11        -3.2210   -0.5600   -3.2680 c3        1 MOL     -0.156491
     26 C12        -2.4870    2.1710   -4.3730 c3        1 MOL     -0.352716
     27 H8         -6.4280   -0.4260   -3.5420 hn        1 MOL      0.237296
     28 H9         -5.1730    1.3550   -3.8400 h1        1 MOL      0.030773
     29 H10        -3.6390    0.5980   -1.5120 hc        1 MOL     -0.069388
     30 H11        -1.7880    1.8230   -2.3680 hc        1 MOL      0.163396
     31 H12        -3.1880    2.9540   -2.5920 hc        1 MOL      0.163396
     32 H13        -2.1680   -0.7770   -3.0740 hc        1 MOL      0.015496
     33 H14        -3.7690   -1.3350   -2.7480 hc        1 MOL      0.015496
     34 H15        -3.5260   -0.5560   -4.3130 hc        1 MOL      0.015496
     35 H16        -1.8210    1.3430   -4.6180 hc        1 MOL      0.062895
     36 H17        -3.3860    2.0080   -4.9580 hc        1 MOL      0.062895
     37 H18        -1.9750    3.1030   -4.6140 hc        1 MOL      0.062895
     38 N3         -6.0610    2.3930   -0.8020 n         1 MOL     -0.024726
     39 C13        -6.7450    3.4810   -0.0680 c3        1 MOL     -0.173577
     40 C14        -5.9550    4.8210    0.0390 c         1 MOL      0.692199
     41 O6         -6.4710    5.8370   -0.1530 o         1 MOL     -0.557595
     42 C15        -7.2580    2.8910    1.2220 c3        1 MOL     -0.132481
     43 C16        -8.0930    1.6100    1.1180 c         1 MOL      0.754953
     44 O7         -9.1600    1.5850    0.4350 o         1 MOL     -0.705040
     45 O8         -7.7670    0.7200    1.9920 o         1 MOL     -0.705040
     46 H19        -6.0910    1.4670   -0.4100 hn        1 MOL      0.178025
     47 H20        -7.6370    3.7830   -0.6120 h1        1 MOL      0.074377
     48 H21        -7.8800    3.6250    1.7390 hc        1 MOL      0.043942
     49 H22        -6.4540    2.7160    1.9300 hc        1 MOL      0.043942
     50 N4         -4.5840    4.8270    0.2950 n         1 MOL     -0.661927
     51 C17        -3.6580    3.6850    0.5320 c3        1 MOL      0.366109
     52 C18        -2.4620    4.0700    1.3400 c         1 MOL      0.320279
     53 O9         -1.8640    5.1620    1.1980 o         1 MOL     -0.562692
     54 H23        -4.1370    5.7360    0.3250 hn        1 MOL      0.306207
     55 H24        -3.4410    3.1000   -0.3580 h1        1 MOL     -0.039119
     56 H25        -4.2830    2.9780    1.0780 h1        1 MOL     -0.039119
     57 N5         -2.0200    3.3200    2.3510 n         1 MOL     -0.264831
     58 C19        -2.3790    1.9520    2.8240 c3        1 MOL      0.116071
     59 C20        -2.4860    0.9360    1.6380 c         1 MOL     -0.153149
     60 O10        -3.5460    0.4530    1.2590 o         1 MOL     -0.330503
     61 C21        -3.6560    1.9990    3.6800 c3        1 MOL     -0.192505
     62 C22        -3.7690    0.7760    4.5440 c         1 MOL      0.683910
     63 O11        -4.7890    0.5590    5.1130 o         1 MOL     -0.661886
     64 O12        -2.8910   -0.1410    4.4100 o         1 MOL     -0.661886
     65 H26        -1.4390    3.7870    3.0380 hn        1 MOL      0.252979
     66 H27        -1.5830    1.6220    3.4900 h1        1 MOL      0.047981
     67 H28        -4.4670    2.1080    2.9670 hc        1 MOL      0.052568
     68 H29        -3.6250    2.8950    4.3160 hc        1 MOL      0.052568
     69 N6         -1.3960    0.5550    0.9680 n         1 MOL      0.161656
     70 C23         0.0000    1.0580    1.0750 c3        1 MOL     -0.153334
     71 C24         0.3020    2.3970    0.3690 c         1 MOL      0.175199
     72 O13        -0.3920    2.7780   -0.5650 o         1 MOL     -0.399470
     73 H30        -1.6950   -0.2300    0.4070 hn        1 MOL     -0.031272
     74 H31         0.5680    0.3000    0.5300 h1        1 MOL      0.098472
     75 H32         0.4260    1.0140    2.0700 h1        1 MOL      0.098472
     76 N7          1.4180    3.1300    0.7100 n         1 MOL     -0.247022
     77 C25         1.9040    4.3800    0.0970 c3        1 MOL      0.139545
     78 C26         2.4770    4.1690   -1.3530 c         1 MOL      0.343921
     79 O14         2.6210    5.1190   -2.1210 o         1 MOL     -0.510960
     80 C27         2.8540    5.1110    1.0620 c3        1 MOL     -0.028735
     81 C28         2.2140    5.6310    2.3370 c3        1 MOL     -0.256459
     82 C29         3.1960    6.0150    3.4830 c         1 MOL      0.716980
     83 N8          2.6890    6.0070    4.7100 n         1 MOL     -0.854633
     84 O15         4.2350    6.6460    3.3510 o         1 MOL     -0.570475
     85 H33         1.9420    2.7990    1.5110 hn        1 MOL      0.260560
     86 H34         0.9890    4.9430   -0.0760 h1        1 MOL      0.124809
     87 H35         3.2210    5.9760    0.5070 hc        1 MOL      0.033678
     88 H36         3.6370    4.4120    1.3530 hc        1 MOL      0.033678
     89 H37         1.5180    4.8630    2.6780 hc        1 MOL      0.083078
     90 H38         1.6150    6.5260    2.1820 hc        1 MOL      0.083078
     91 H39         1.7700    5.6410    4.8730 hn        1 MOL      0.375209
     92 H40         3.1700    6.4410    5.4840 hn        1 MOL      0.375209
     93 N9          2.8600    2.9790   -1.7900 n         1 MOL     -0.227184
     94 C30         3.2650    2.6540   -3.1690 c3        1 MOL     -0.101538
     95 C31         4.6480    1.8960   -3.3520 c         1 MOL      0.517133
     96 O16         5.0520    1.6320   -4.4900 o         1 MOL     -0.551004
     97 C32         2.2580    1.7050   -3.8840 c3        1 MOL      0.180594
     98 C33         1.0880    2.6170   -4.4170 c3        1 MOL     -0.268942
     99 C34         1.7120    0.5660   -2.9470 c3        1 MOL     -0.268942
    100 H41         2.6530    2.2770   -1.1000 hn        1 MOL      0.113750
    101 H42         3.3580    3.5340   -3.7920 h1        1 MOL      0.139677
    102 H43         2.7770    1.2660   -4.7380 hc        1 MOL      0.009785
    103 H44         0.4880    2.9700   -3.5720 hc        1 MOL      0.077285
    104 H45         1.5150    3.3870   -5.0510 hc        1 MOL      0.077285
    105 H46         0.5050    1.9530   -5.0600 hc        1 MOL      0.077285
    106 H47         2.5180   -0.0990   -2.6540 hc        1 MOL      0.077285
    107 H48         1.1310    0.9120   -2.0900 hc        1 MOL      0.077285
    108 H49         0.9680   -0.0620   -3.4390 hc        1 MOL      0.077285
    109 N10         5.4200    1.6110   -2.3110 n         1 MOL     -0.401989
    110 C35         6.7500    0.9750   -2.3180 c3        1 MOL      0.037597
    111 C36         6.8680   -0.3510   -1.5280 c         1 MOL      0.674131
    112 O17         7.7730   -1.1480   -1.7350 o         1 MOL     -0.580595
    113 C37         7.8800    1.8860   -1.8010 c3        1 MOL     -0.419821
    114 C38         8.1250    3.1700   -2.5870 c         1 MOL      0.753573
    115 N11         8.2470    3.1530   -3.8620 n         1 MOL     -0.811342
    116 O18         8.2960    4.2300   -1.9710 o         1 MOL     -0.597751
    117 H50         5.0970    1.8890   -1.3960 hn        1 MOL      0.270052
    118 H51         6.9660    0.7490   -3.3600 h1        1 MOL      0.059190
    119 H52         8.7810    1.3230   -2.0540 hc        1 MOL      0.136920
    120 H53         7.7810    2.1020   -0.7290 hc        1 MOL      0.136920
    121 H54         8.1290    2.2500   -4.3070 hn        1 MOL      0.380639
    122 H55         8.2850    4.0140   -4.3900 hn        1 MOL      0.380639
    123 N12         5.8380   -0.6920   -0.7510 n         1 MOL     -0.480485
    124 C39         5.9250   -1.8920    0.1270 c3        1 MOL     -0.024664
    125 C40         4.5920   -2.4700    0.5380 c         1 MOL      0.466925
    126 O19         3.6210   -1.7420    0.5720 o         1 MOL     -0.464309
    127 C41         6.5330   -1.3530    1.4520 c3        1 MOL     -0.123104
    128 C42         8.0440   -0.9180    1.4710 ca        1 MOL      0.016775
    129 C43         8.9910   -1.8610    0.9460 ca        1 MOL     -0.094178
    130 C44         8.4760    0.2550    2.0250 ca        1 MOL     -0.094178
    131 C45        10.3830   -1.5810    1.0230 ca        1 MOL     -0.286851
    132 C46         9.8530    0.4870    2.1640 ca        1 MOL     -0.286851
    133 C47        10.8260   -0.3840    1.6090 ca        1 MOL      0.327813
    134 O20        12.1030   -0.0030    1.4860 oh        1 MOL     -0.481533
    135 H56         5.1150   -0.0360   -0.4820 hn        1 MOL      0.258066
    136 H57         6.4950   -2.6820   -0.3510 h1        1 MOL      0.106269
    137 H58         6.3670   -2.0950    2.2290 hc        1 MOL      0.092597
    138 H59         5.8960   -0.5380    1.8210 hc        1 MOL      0.092597
    139 H60         8.6670   -2.8090    0.5360 ha        1 MOL      0.117873
    140 H61         7.7260    0.9720    2.2980 ha        1 MOL      0.117873
    141 H62        11.1030   -2.2910    0.6500 ha        1 MOL      0.141115
    142 H63        10.1900    1.4520    2.5200 ha        1 MOL      0.141115
    143 H64        12.5730   -0.6030    0.8970 ho        1 MOL      0.358052
    144 N13         4.6310   -3.7680    0.9230 n         1 MOL     -0.451970
    145 C48         3.6140   -4.6960    1.4570 c3        1 MOL      0.110613
    146 C49         2.5600   -5.0540    0.4730 c         1 MOL      0.381516
    147 O21         2.0490   -6.1650    0.5780 o         1 MOL     -0.522296
    148 C50         3.1760   -4.1650    2.8530 c3        1 MOL      0.166999
    149 C51         4.1630   -4.3980    3.9760 c3        1 MOL     -0.304201
    150 C52         3.5030   -3.7720    5.2070 c         1 MOL      0.744450
    151 O22         3.5870   -2.5510    5.3820 o         1 MOL     -0.732791
    152 O23         2.9550   -4.4810    6.1130 o         1 MOL     -0.732791
    153 H65         5.5150   -4.2300    0.7810 hn        1 MOL      0.262998
    154 H66         4.0470   -5.6860    1.6120 h1        1 MOL      0.040892
    155 H67         2.2910   -4.6970    3.1870 hc        1 MOL     -0.004998
    156 H68         2.7550   -3.1580    2.7530 hc        1 MOL     -0.004998
    157 H69         5.0580   -3.8580    3.6480 hc        1 MOL      0.023289
    158 H70         4.3680   -5.4580    4.1040 hc        1 MOL      0.023289
    159 N14         2.1500   -4.1810   -0.4190 n         1 MOL     -0.361975
    160 C53         1.0960   -4.4490   -1.3530 c3        1 MOL      0.010535
    161 C54         1.5230   -5.3040   -2.5110 c         1 MOL      0.425992
    162 O24         0.6530   -5.9070   -3.0970 o         1 MOL     -0.540657
    163 C55         0.5470   -3.0950   -1.8860 c3        1 MOL     -0.081716
    164 C56        -0.0730   -2.1190   -0.8600 c3        1 MOL      0.542061
    165 C57        -1.3570   -2.5210   -0.1890 c         1 MOL      0.488617
    166 O25        -2.4360   -1.9020   -0.5110 o         1 MOL     -0.606925
    167 O26        -1.3180   -3.4990    0.5250 o         1 MOL     -0.606925
    168 H71         2.5430   -3.2510   -0.4230 hn        1 MOL      0.285754
    169 H72         0.2420   -5.0330   -1.0240 h1        1 MOL      0.146534
    170 H73        -0.1500   -3.2190   -2.7110 hc        1 MOL     -0.019108
    171 H74         1.4700   -2.6460   -2.2460 hc        1 MOL     -0.019108
    172 H75        -0.2510   -1.1620   -1.3620 hc        1 MOL     -0.164320
    173 H76         0.7310   -1.8410   -0.1820 hc        1 MOL     -0.164320
    174 N15         2.7990   -5.3800   -2.7870 n         1 MOL     -0.171959
    175 C58         3.3600   -6.2850   -3.7870 c3        1 MOL     -0.215905
    176 H77         2.6010   -7.0050   -4.0900 h1        1 MOL      0.091049
    177 H78         3.6840   -5.7120   -4.6550 h1        1 MOL      0.091049
    178 H79         4.2120   -6.8150   -3.3620 h1        1 MOL      0.091049
    179 H80         3.4780   -4.9390   -2.1940 hn        1 MOL      0.172487
    180 Ca1        -4.4770   -2.1260    1.0860 Ca        1 MOL      1.809012
    181 O27        -4.2580   -4.7730    1.4150 oh        1 MOL     -0.894126
    182 H81        -3.4280   -5.2000    1.5810 ho        1 MOL      0.426417
    183 H82        -4.8500   -5.4740    1.1250 ho        1 MOL      0.426417
    184 O28        -2.7610   -2.2790    3.0770 oh        1 MOL     -0.894126
    185 H83        -1.8520   -2.5260    2.9260 ho        1 MOL      0.426417
    186 H84        -2.7120   -1.4930    3.6120 ho        1 MOL      0.426417
    187 O29        -5.9340   -1.0160    2.9020 oh        1 MOL     -0.894126
    188 H85        -5.8010   -0.5470    3.7340 ho        1 MOL      0.426417
    189 H86        -6.6970   -0.5900    2.5080 ho        1 MOL      0.426417
@<TRIPOS>BOND
     1    1    2 1   
     2    1    4 1   
     3    1    5 1   
     4    1    6 1   
     5    2    3 2   
     6    2    7 1   
     7    7    8 1   
     8    7   15 1   
     9    8    9 1   
    10    8   11 1   
    11    8   16 1   
    12    9   10 2   
    13    9   19 1   
    14   11   12 1   
    15   11   17 1   
    16   11   18 1   
    17   12   13 1   
    18   12   14 1   
    19   19   20 1   
    20   19   27 1   
    21   20   21 1   
    22   20   23 1   
    23   20   28 1   
    24   21   22 2   
    25   21   38 1   
    26   23   24 1   
    27   23   25 1   
    28   23   29 1   
    29   24   26 1   
    30   24   30 1   
    31   24   31 1   
    32   25   32 1   
    33   25   33 1   
    34   25   34 1   
    35   26   35 1   
    36   26   36 1   
    37   26   37 1   
    38   38   39 1   
    39   38   46 1   
    40   39   40 1   
    41   39   42 1   
    42   39   47 1   
    43   40   41 2   
    44   40   50 1   
    45   42   43 1   
    46   42   48 1   
    47   42   49 1   
    48   43   44 1   
    49   43   45 1   
    50   50   51 1   
    51   50   54 1   
    52   51   52 1   
    53   51   55 1   
    54   51   56 1   
    55   52   53 2   
    56   52   57 1   
    57   57   58 1   
    58   57   65 1   
    59   58   59 1   
    60   58   61 1   
    61   58   66 1   
    62   59   60 2   
    63   59   69 1   
    64   61   62 1   
    65   61   67 1   
    66   61   68 1   
    67   62   63 1   
    68   62   64 1   
    69   69   70 1   
    70   69   73 1   
    71   70   71 1   
    72   70   74 1   
    73   70   75 1   
    74   71   72 2   
    75   71   76 1   
    76   76   77 1   
    77   76   85 1   
    78   77   78 1   
    79   77   80 1   
    80   77   86 1   
    81   78   79 2   
    82   78   93 1   
    83   80   81 1   
    84   80   87 1   
    85   80   88 1   
    86   81   82 1   
    87   81   89 1   
    88   81   90 1   
    89   82   83 1   
    90   82   84 2   
    91   83   91 1   
    92   83   92 1   
    93   93   94 1   
    94   93  100 1   
    95   94   95 1   
    96   94   97 1   
    97   94  101 1   
    98   95   96 2   
    99   95  109 1   
   100   97   98 1   
   101   97   99 1   
   102   97  102 1   
   103   98  103 1   
   104   98  104 1   
   105   98  105 1   
   106   99  106 1   
   107   99  107 1   
   108   99  108 1   
   109  109  110 1   
   110  109  117 1   
   111  110  111 1   
   112  110  113 1   
   113  110  118 1   
   114  111  112 2   
   115  111  123 1   
   116  113  114 1   
   117  113  119 1   
   118  113  120 1   
   119  114  115 1   
   120  114  116 2   
   121  115  121 1   
   122  115  122 1   
   123  123  124 1   
   124  123  135 1   
   125  124  125 1   
   126  124  127 1   
   127  124  136 1   
   128  125  126 2   
   129  125  144 1   
   130  127  128 1   
   131  127  137 1   
   132  127  138 1   
   133  128  129 ar  
   134  128  130 ar  
   135  129  131 ar  
   136  129  139 1   
   137  130  132 ar  
   138  130  140 1   
   139  131  133 ar  
   140  131  141 1   
   141  132  133 ar  
   142  132  142 1   
   143  133  134 1   
   144  134  143 1   
   145  144  145 1   
   146  144  153 1   
   147  145  146 1   
   148  145  148 1   
   149  145  154 1   
   150  146  147 2   
   151  146  159 1   
   152  148  149 1   
   153  148  155 1   
   154  148  156 1   
   155  149  150 1   
   156  149  157 1   
   157  149  158 1   
   158  150  151 1   
   159  150  152 1   
   160  159  160 1   
   161  159  168 1   
   162  160  161 1   
   163  160  163 1   
   164  160  169 1   
   165  161  162 2   
   166  161  174 1   
   167  163  164 1   
   168  163  170 1   
   169  163  171 1   
   170  164  165 1   
   171  164  172 1   
   172  164  173 1   
   173  165  166 1   
   174  165  167 1   
   175  174  175 1   
   176  174  179 1   
   177  175  176 1   
   178  175  177 1   
   179  175  178 1   
   180  181  182 1   
   181  181  183 1   
   182  184  185 1   
   183  184  186 1   
   184  187  188 1   
   185  187  189 1   
@<TRIPOS>SUBSTRUCTURE
     1 MOL         1 TEMP              0 ****  ****    0 ROOT
