@<TRIPOS>MOLECULE
MOL
  175   173     1     0     0
SMALL
resp


@<TRIPOS>ATOM
      1 C1         -6.9930    7.7050    0.7810 c3        1 MOL     -0.410181
      2 C2         -8.0500    6.8330    0.0220 c         1 MOL      0.696620
      3 O1         -8.1520    6.7470   -1.1500 o         1 MOL     -0.572029
      4 H1         -7.2640    7.7680    1.8350 hc        1 MOL      0.097425
      5 H2         -6.0090    7.2470    0.6860 hc        1 MOL      0.097425
      6 H3         -6.9720    8.7070    0.3510 hc        1 MOL      0.097425
      7 N1         -8.7750    6.0050    0.8520 n         1 MOL     -0.656135
      8 C3         -9.5910    4.9370    0.4400 c3        1 MOL      0.486813
      9 C4         -8.9230    3.6260    0.1280 c         1 MOL      0.419601
     10 O2         -9.6960    2.7190   -0.3120 o         1 MOL     -0.478208
     11 C5        -10.7930    4.8370    1.4570 c3        1 MOL     -0.284683
     12 C6        -12.0050    4.1280    0.8130 c         1 MOL      0.787322
     13 O3        -12.8050    3.5840    1.5840 o         1 MOL     -0.746915
     14 O4        -12.1730    4.1820   -0.3980 o         1 MOL     -0.746915
     15 H4         -8.4770    6.1630    1.7980 hn        1 MOL      0.270077
     16 H5        -10.1960    5.2780   -0.4030 h1        1 MOL      0.004670
     17 H6        -11.0940    5.8020    1.8700 hc        1 MOL      0.006933
     18 H7        -10.5890    4.1540    2.2860 hc        1 MOL      0.006933
     19 N2         -7.6180    3.4310    0.2180 n         1 MOL     -0.603924
     20 C7         -6.8590    2.6130   -0.6740 c3        1 MOL      0.412379
     21 C8         -5.5500    2.1460   -0.0060 c         1 MOL      0.402308
     22 O5         -4.9370    2.8830    0.7990 o         1 MOL     -0.528912
     23 C9         -6.6710    3.2160   -2.0550 c3        1 MOL     -0.133026
     24 H8         -7.1320    3.9010    0.9670 hn        1 MOL      0.279491
     25 H9         -7.4850    1.7700   -0.9550 h1        1 MOL     -0.061335
     26 H10        -5.7800    3.8260   -2.1320 hc        1 MOL      0.043592
     27 H11        -6.5940    2.4980   -2.8680 hc        1 MOL      0.043592
     28 H12        -7.5520    3.8060   -2.3060 hc        1 MOL      0.043592
     29 N3         -4.9170    1.0380   -0.4010 n         1 MOL     -0.322544
     30 C10        -5.4190   -0.0640   -1.3240 c3        1 MOL     -0.213077
     31 C11        -5.5240   -1.4670   -0.6520 c         1 MOL      0.483727
     32 O6         -4.7160   -1.8510    0.2460 o         1 MOL     -0.486330
     33 C12        -4.3630   -0.2660   -2.3870 c3        1 MOL     -0.077768
     34 C13        -2.8550   -0.4170   -2.0520 c         1 MOL      0.649851
     35 O7         -2.1230    0.5540   -1.7900 o         1 MOL     -0.687444
     36 O8         -2.3240   -1.5450   -2.2620 o         1 MOL     -0.687444
     37 H13        -4.1130    0.7920    0.1490 hn        1 MOL      0.284154
     38 H14        -6.3810    0.1340   -1.8000 h1        1 MOL      0.156961
     39 H15        -4.5070    0.5650   -3.0790 hc        1 MOL      0.027970
     40 H16        -4.6850   -1.0910   -3.0110 hc        1 MOL      0.027970
     41 N4         -6.4990   -2.2950   -1.1520 n         1 MOL     -0.417566
     42 C14        -6.7130   -3.6660   -0.5700 c3        1 MOL      0.071693
     43 C15        -6.4490   -4.7730   -1.6230 c         1 MOL      0.494052
     44 O9         -7.4530   -5.3680   -2.0210 o         1 MOL     -0.569205
     45 H17        -7.0910   -1.9860   -1.9110 hn        1 MOL      0.304733
     46 H18        -7.7690   -3.6690   -0.2880 h1        1 MOL      0.059614
     47 H19        -6.1320   -3.7390    0.3520 h1        1 MOL      0.059614
     48 N5         -5.2530   -5.2050   -1.9110 n         1 MOL     -0.412438
     49 C16        -4.0220   -4.6580   -1.3470 c3        1 MOL     -0.017227
     50 C17        -3.8290   -5.0760    0.1500 c         1 MOL      0.486120
     51 O10        -3.8180   -6.2220    0.5040 o         1 MOL     -0.563228
     52 C18        -2.8290   -5.2140   -2.2020 c3        1 MOL      0.006775
     53 C19        -1.4780   -4.5910   -1.8410 c         1 MOL      0.418450
     54 N6         -0.4560   -4.7840   -2.6410 n         1 MOL     -0.683159
     55 O11        -1.3990   -3.9460   -0.8120 o         1 MOL     -0.585917
     56 H20        -5.2570   -5.9350   -2.6110 hn        1 MOL      0.289414
     57 H21        -4.0610   -3.5680   -1.4360 h1        1 MOL      0.076158
     58 H22        -3.0870   -5.0460   -3.2470 hc        1 MOL      0.042029
     59 H23        -2.7300   -6.3060   -2.1900 hc        1 MOL      0.042029
     60 H24        -0.5610   -5.3110   -3.5010 hn        1 MOL      0.339557
     61 H25         0.4540   -4.3800   -2.5120 hn        1 MOL      0.339557
     62 N7         -3.4780   -4.1470    1.0210 n         1 MOL     -0.022096
     63 C20        -3.2380   -4.2980    2.4870 c3        1 MOL     -0.287148
     64 C21        -1.8540   -4.8590    2.8020 c         1 MOL      0.584889
     65 O12        -1.5880   -5.2940    3.9570 o         1 MOL     -0.608056
     66 H26        -3.4220   -3.1840    0.7190 hn        1 MOL      0.096253
     67 H27        -3.9780   -4.8410    3.0770 h1        1 MOL      0.112971
     68 H28        -3.1420   -3.3190    2.9580 h1        1 MOL      0.112971
     69 N8         -0.9760   -4.9320    1.8510 n         1 MOL     -0.360362
     70 C22         0.4740   -5.0480    2.0570 c3        1 MOL      0.060583
     71 C23         1.1740   -3.7120    1.8370 c         1 MOL      0.416690
     72 O13         0.6860   -2.9180    1.0180 o         1 MOL     -0.583288
     73 C24         1.1060   -6.2010    1.2910 c3        1 MOL      0.348782
     74 C25         0.4420   -7.4670    1.7180 c3        1 MOL     -0.405307
     75 O14         1.0790   -6.0930   -0.1530 oh        1 MOL     -0.545196
     76 H29        -1.2350   -4.5200    0.9590 hn        1 MOL      0.366741
     77 H30         0.7080   -5.2500    3.1000 h1        1 MOL      0.021565
     78 H31         2.1430   -6.2150    1.6040 h1        1 MOL     -0.032717
     79 H32         1.5610   -5.3020   -0.4010 ho        1 MOL      0.380218
     80 H33        -0.5170   -7.5950    1.2100 hc        1 MOL      0.104633
     81 H34         1.0890   -8.2950    1.4210 hc        1 MOL      0.104633
     82 H35         0.4050   -7.5250    2.8060 hc        1 MOL      0.104633
     83 N9          2.2090   -3.4910    2.6140 n         1 MOL     -0.293532
     84 C26         3.1430   -2.2810    2.5320 c3        1 MOL      0.033015
     85 C27         4.2650   -2.5590    1.4900 c         1 MOL      0.250209
     86 O15         5.1610   -3.3480    1.7260 o         1 MOL     -0.535077
     87 C28         3.7440   -2.0350    3.9000 c3        1 MOL      0.111104
     88 C29         4.7520   -0.8720    4.0370 c3        1 MOL     -0.250779
     89 C30         2.5700   -1.6950    4.8280 c3        1 MOL     -0.182115
     90 C31         4.3820    0.4390    3.4370 c3        1 MOL     -0.210146
     91 H36         2.5820   -4.1940    3.2430 hn        1 MOL      0.261474
     92 H37         2.6020   -1.3720    2.2380 h1        1 MOL      0.127556
     93 H38         4.1500   -2.9130    4.3990 hc        1 MOL      0.018237
     94 H39         5.6570   -1.2080    3.5310 hc        1 MOL      0.079578
     95 H40         4.9590   -0.7400    5.0980 hc        1 MOL      0.079578
     96 H41         1.9590   -0.8840    4.4240 hc        1 MOL      0.038988
     97 H42         1.8600   -2.5170    4.9870 hc        1 MOL      0.038988
     98 H43         2.9020   -1.4270    5.8280 hc        1 MOL      0.038988
     99 H44         3.4610    0.8130    3.8830 hc        1 MOL      0.088037
    100 H45         5.0870    1.1970    3.7870 hc        1 MOL      0.088037
    101 H46         4.1730    0.2780    2.3760 hc        1 MOL      0.088037
    102 N10         4.0680   -2.0280    0.3040 n         1 MOL      0.095062
    103 C32         4.7940   -2.5240   -0.8580 c3        1 MOL      0.044848
    104 C33         6.0250   -1.6730   -1.2040 c         1 MOL      0.600520
    105 O16         6.6190   -1.9290   -2.2620 o         1 MOL     -0.560204
    106 C34         3.9200   -2.6280   -2.1220 c3        1 MOL     -0.264749
    107 C35         2.6550   -3.4710   -1.9580 c         1 MOL      0.799678
    108 O17         2.7740   -4.6890   -1.7880 o         1 MOL     -0.707388
    109 O18         1.5390   -2.9420   -2.0080 o         1 MOL     -0.707388
    110 H47         3.3020   -1.4120    0.1150 hn        1 MOL     -0.042734
    111 H48         5.2380   -3.5020   -0.6640 h1        1 MOL      0.065839
    112 H49         4.3920   -3.0940   -2.9910 hc        1 MOL      0.058056
    113 H50         3.5430   -1.6500   -2.4410 hc        1 MOL      0.058056
    114 N11         6.3190   -0.6610   -0.3630 n         1 MOL     -0.640588
    115 C36         7.1680    0.4740   -0.8450 c3        1 MOL      0.265288
    116 C37         6.7300    1.7950   -0.1960 c         1 MOL      0.481656
    117 O19         6.3630    1.8070    0.9300 o         1 MOL     -0.558857
    118 C38         8.6290    0.1970   -0.5030 c3        1 MOL     -0.237198
    119 C39         9.6260    1.3990   -0.6860 ca        1 MOL      0.073239
    120 C40         9.8940    2.3290    0.3590 ca        1 MOL     -0.159903
    121 C41        10.3640    1.5060   -1.8880 ca        1 MOL     -0.159903
    122 C42        10.9660    3.2600    0.2650 ca        1 MOL     -0.096909
    123 C43        11.2760    2.5500   -2.0470 ca        1 MOL     -0.096909
    124 C44        11.5770    3.4560   -0.9910 ca        1 MOL     -0.136390
    125 H51         5.8770   -0.5100    0.5260 hn        1 MOL      0.375949
    126 H52         7.0660    0.6190   -1.9240 h1        1 MOL      0.023580
    127 H53         8.9010   -0.6980   -1.0580 hc        1 MOL      0.098657
    128 H54         8.6690   -0.1270    0.5420 hc        1 MOL      0.098657
    129 H55         9.4700    2.2490    1.3490 ha        1 MOL      0.130201
    130 H56        10.1980    0.8330   -2.7150 ha        1 MOL      0.130201
    131 H57        11.1820    3.8730    1.1320 ha        1 MOL      0.106351
    132 H58        11.7710    2.5590   -2.9950 ha        1 MOL      0.106351
    133 H59        12.3570    4.1890   -1.1460 ha        1 MOL      0.107489
    134 N12         6.8060    2.9730   -0.8850 n         1 MOL     -0.164455
    135 C45         6.7900    4.3310   -0.2660 c3        1 MOL     -0.154936
    136 C46         5.3840    4.9780   -0.0520 c         1 MOL      0.520953
    137 O20         5.3190    6.1620    0.3370 o         1 MOL     -0.564285
    138 C47         7.6330    5.1520   -1.3610 c3        1 MOL     -0.157782
    139 C48         7.1300    4.5220   -2.6820 c3        1 MOL      0.017149
    140 C49         7.2140    3.0590   -2.3070 c3        1 MOL     -0.090641
    141 H60         7.3810    4.2790    0.6470 h1        1 MOL      0.142305
    142 H61         7.3920    6.2140   -1.2500 hc        1 MOL      0.077848
    143 H62         8.7040    5.0000   -1.2560 hc        1 MOL      0.077848
    144 H63         6.0840    4.7600   -2.8930 hc        1 MOL      0.032325
    145 H64         7.6640    4.8040   -3.5920 hc        1 MOL      0.032325
    146 H65         6.6600    2.4060   -2.9700 h1        1 MOL      0.061791
    147 H66         8.2590    2.7670   -2.4310 h1        1 MOL      0.061791
    148 N13         4.3330    4.2240   -0.2660 n         1 MOL     -0.233046
    149 C50         2.9550    4.6450   -0.1600 c3        1 MOL     -0.079447
    150 C51         2.6050    5.4230    1.1530 c         1 MOL      0.406994
    151 O21         1.5730    6.0800    1.1510 o         1 MOL     -0.520536
    152 C52         1.9610    3.4810   -0.3160 c3        1 MOL     -0.187558
    153 C53         2.4870    2.2600    0.5000 c3        1 MOL      0.159602
    154 C54         1.5870    1.0220    0.2530 c         1 MOL      0.650099
    155 O22         0.3960    1.1220    0.4850 o         1 MOL     -0.686418
    156 O23         1.9950   -0.0480   -0.1980 o         1 MOL     -0.686418
    157 H67         4.5510    3.2820   -0.5420 hn        1 MOL      0.202234
    158 H68         2.7420    5.2170   -1.0660 h1        1 MOL      0.104333
    159 H69         1.9160    3.2250   -1.3730 hc        1 MOL      0.104003
    160 H70         1.0200    3.8290    0.1050 hc        1 MOL      0.104003
    161 H71         2.6630    2.4370    1.5570 hc        1 MOL     -0.089275
    162 H72         3.3960    2.0030   -0.0400 hc        1 MOL     -0.089275
    163 N14         3.4130    5.4170    2.1880 n         1 MOL     -0.040467
    164 C55         3.1800    6.0670    3.4960 c3        1 MOL     -0.164864
    165 H73         3.6260    7.0620    3.4920 h1        1 MOL      0.079325
    166 H74         2.1090    6.1510    3.6760 h1        1 MOL      0.079325
    167 H75         3.6350    5.4700    4.2860 h1        1 MOL      0.079325
    168 H76         4.2030    4.7950    2.0430 hn        1 MOL      0.136558
    169 Ca1        -0.1050   -1.3220   -0.9380 Ca        1 MOL      1.752520
    170 O24         0.7200   -0.3890   -3.4130 oh        1 MOL     -0.877289
    171 H77         0.5280    0.3840   -3.9450 ho        1 MOL      0.419546
    172 H78         0.9910   -1.0550   -4.0460 ho        1 MOL      0.419546
    173 O25        -2.0650   -1.0910    0.8950 oh        1 MOL     -0.877289
    174 H79        -1.9140   -0.4850    1.6190 ho        1 MOL      0.419546
    175 H80        -3.0150   -1.1830    0.8530 ho        1 MOL      0.419546
@<TRIPOS>BOND
     1    1    2 1   
     2    1    4 1   
     3    1    5 1   
     4    1    6 1   
     5    2    3 2   
     6    2    7 1   
     7    7    8 1   
     8    7   15 1   
     9    8    9 1   
    10    8   11 1   
    11    8   16 1   
    12    9   10 2   
    13    9   19 1   
    14   11   12 1   
    15   11   17 1   
    16   11   18 1   
    17   12   13 1   
    18   12   14 1   
    19   19   20 1   
    20   19   24 1   
    21   20   21 1   
    22   20   23 1   
    23   20   25 1   
    24   21   22 2   
    25   21   29 1   
    26   23   26 1   
    27   23   27 1   
    28   23   28 1   
    29   29   30 1   
    30   29   37 1   
    31   30   31 1   
    32   30   33 1   
    33   30   38 1   
    34   31   32 2   
    35   31   41 1   
    36   33   34 1   
    37   33   39 1   
    38   33   40 1   
    39   34   35 1   
    40   34   36 1   
    41   41   42 1   
    42   41   45 1   
    43   42   43 1   
    44   42   46 1   
    45   42   47 1   
    46   43   44 2   
    47   43   48 1   
    48   48   49 1   
    49   48   56 1   
    50   49   50 1   
    51   49   52 1   
    52   49   57 1   
    53   50   51 2   
    54   50   62 1   
    55   52   53 1   
    56   52   58 1   
    57   52   59 1   
    58   53   54 1   
    59   53   55 2   
    60   54   60 1   
    61   54   61 1   
    62   62   63 1   
    63   62   66 1   
    64   63   64 1   
    65   63   67 1   
    66   63   68 1   
    67   64   65 2   
    68   64   69 1   
    69   69   70 1   
    70   69   76 1   
    71   70   71 1   
    72   70   73 1   
    73   70   77 1   
    74   71   72 2   
    75   71   83 1   
    76   73   74 1   
    77   73   75 1   
    78   73   78 1   
    79   74   80 1   
    80   74   81 1   
    81   74   82 1   
    82   75   79 1   
    83   83   84 1   
    84   83   91 1   
    85   84   85 1   
    86   84   87 1   
    87   84   92 1   
    88   85   86 2   
    89   85  102 1   
    90   87   88 1   
    91   87   89 1   
    92   87   93 1   
    93   88   90 1   
    94   88   94 1   
    95   88   95 1   
    96   89   96 1   
    97   89   97 1   
    98   89   98 1   
    99   90   99 1   
   100   90  100 1   
   101   90  101 1   
   102  102  103 1   
   103  102  110 1   
   104  103  104 1   
   105  103  106 1   
   106  103  111 1   
   107  104  105 2   
   108  104  114 1   
   109  106  107 1   
   110  106  112 1   
   111  106  113 1   
   112  107  108 1   
   113  107  109 1   
   114  114  115 1   
   115  114  125 1   
   116  115  116 1   
   117  115  118 1   
   118  115  126 1   
   119  116  117 2   
   120  116  134 1   
   121  118  119 1   
   122  118  127 1   
   123  118  128 1   
   124  119  120 ar  
   125  119  121 ar  
   126  120  122 ar  
   127  120  129 1   
   128  121  123 ar  
   129  121  130 1   
   130  122  124 ar  
   131  122  131 1   
   132  123  124 ar  
   133  123  132 1   
   134  124  133 1   
   135  134  135 1   
   136  134  140 1   
   137  135  136 1   
   138  135  138 1   
   139  135  141 1   
   140  136  137 2   
   141  136  148 1   
   142  138  139 1   
   143  138  142 1   
   144  138  143 1   
   145  139  140 1   
   146  139  144 1   
   147  139  145 1   
   148  140  146 1   
   149  140  147 1   
   150  148  149 1   
   151  148  157 1   
   152  149  150 1   
   153  149  152 1   
   154  149  158 1   
   155  150  151 2   
   156  150  163 1   
   157  152  153 1   
   158  152  159 1   
   159  152  160 1   
   160  153  154 1   
   161  153  161 1   
   162  153  162 1   
   163  154  155 1   
   164  154  156 1   
   165  163  164 1   
   166  163  168 1   
   167  164  165 1   
   168  164  166 1   
   169  164  167 1   
   170  170  171 1   
   171  170  172 1   
   172  173  174 1   
   173  173  175 1   
@<TRIPOS>SUBSTRUCTURE
     1 MOL         1 TEMP              0 ****  ****    0 ROOT
