@<TRIPOS>MOLECULE
MOL
  192   187     1     0     0
SMALL
resp


@<TRIPOS>ATOM
      1 C1          4.6350   -1.3110   -2.6920 c3        1 MOL      0.073338
      2 C2          3.7420   -2.1300   -1.7300 c         1 MOL      0.389591
      3 O1          2.7480   -1.5650   -1.2460 o         1 MOL     -0.481722
      4 H1          4.6000   -1.7560   -3.6870 hc        1 MOL     -0.028245
      5 H2          4.2720   -0.2840   -2.7420 hc        1 MOL     -0.028245
      6 H3          5.6630   -1.3170   -2.3290 hc        1 MOL     -0.028245
      7 N1          4.0780   -3.3650   -1.5010 n         1 MOL     -0.164322
      8 C3          3.3560   -4.2390   -0.6400 c3        1 MOL     -0.566927
      9 C4          1.7360   -4.3410   -0.8230 c         1 MOL      0.864950
     10 O2          1.0060   -4.6190    0.1300 o         1 MOL     -0.554454
     11 C5          3.7590   -3.8530    0.8410 c3        1 MOL     -0.367295
     12 C6          5.2500   -3.6090    0.9760 c         1 MOL      0.990813
     13 O3          6.1290   -4.4110    0.4250 o         1 MOL     -0.823692
     14 O4          5.5820   -2.7050    1.7540 o         1 MOL     -0.823692
     15 H4          5.0160   -3.6400   -1.7590 hn        1 MOL      0.187120
     16 H5          3.7490   -5.2530   -0.6970 h1        1 MOL      0.213576
     17 H6          3.4920   -4.6160    1.5770 hc        1 MOL      0.155832
     18 H7          3.2810   -2.9200    1.1360 hc        1 MOL      0.155832
     19 N2          1.1890   -4.2780   -2.0190 n         1 MOL     -0.540882
     20 C7         -0.2100   -4.5500   -2.4010 c3        1 MOL     -0.272964
     21 C8         -0.6860   -5.9180   -1.8970 c         1 MOL      0.671120
     22 O5         -0.0760   -6.9670   -1.9710 o         1 MOL     -0.590588
     23 C9         -0.2620   -4.3810   -3.9320 c3        1 MOL     -0.067759
     24 C10         0.3200   -5.5800   -4.7460 c3        1 MOL      0.246414
     25 C11         0.2820   -3.0400   -4.3560 c3        1 MOL     -0.152436
     26 C12        -0.0590   -5.6170   -6.1930 c3        1 MOL     -0.248273
     27 H8          1.8320   -4.0590   -2.7710 hn        1 MOL      0.339386
     28 H9         -0.8780   -3.7800   -2.0010 h1        1 MOL      0.220664
     29 H10        -1.3180   -4.4060   -4.2290 hc        1 MOL      0.104265
     30 H11         0.0290   -6.5310   -4.2960 hc        1 MOL     -0.040102
     31 H12         1.4020   -5.6710   -4.6200 hc        1 MOL     -0.040102
     32 H13         1.3690   -3.0730   -4.2340 hc        1 MOL      0.046983
     33 H14        -0.0500   -2.7400   -5.3560 hc        1 MOL      0.046983
     34 H15         0.0520   -2.2690   -3.6200 hc        1 MOL      0.046983
     35 H16        -1.1490   -5.6400   -6.2280 hc        1 MOL      0.041553
     36 H17         0.3750   -4.7670   -6.7330 hc        1 MOL      0.041553
     37 H18         0.3670   -6.5340   -6.6050 hc        1 MOL      0.041553
     38 N3         -1.8550   -5.8890   -1.2580 n         1 MOL     -0.396578
     39 C13        -2.7550   -4.8340   -0.8440 c3        1 MOL     -0.287426
     40 C14        -3.7440   -5.6120    0.0090 c         1 MOL      0.622099
     41 O6         -4.5160   -6.4770   -0.4290 o         1 MOL     -0.552099
     42 C15        -3.5780   -4.2010   -1.9910 c3        1 MOL     -0.230690
     43 C16        -4.7380   -3.2980   -1.5290 c         1 MOL      0.819921
     44 O7         -4.8920   -2.9210   -0.3500 o         1 MOL     -0.721055
     45 O8         -5.5700   -2.9750   -2.3520 o         1 MOL     -0.721055
     46 H19        -2.1380   -6.7980   -0.9380 hn        1 MOL      0.255879
     47 H20        -2.2830   -4.1030   -0.1960 h1        1 MOL      0.164608
     48 H21        -3.9890   -5.0220   -2.5800 hc        1 MOL      0.068472
     49 H22        -2.9720   -3.6820   -2.7410 hc        1 MOL      0.068472
     50 N4         -3.7610   -5.1550    1.2500 n         1 MOL     -0.291960
     51 C17        -4.5560   -5.7230    2.3610 c3        1 MOL     -0.164312
     52 C18        -5.5420   -4.7070    3.0810 c         1 MOL      0.689142
     53 O9         -6.0430   -5.0140    4.1990 o         1 MOL     -0.619652
     54 H23        -3.2230   -4.3130    1.4090 hn        1 MOL      0.269867
     55 H24        -3.8540   -6.1140    3.1020 h1        1 MOL      0.071419
     56 H25        -5.2190   -6.5050    1.9910 h1        1 MOL      0.071419
     57 N5         -5.7730   -3.5390    2.3950 n         1 MOL     -0.524602
     58 C19        -6.4040   -2.3270    3.0010 c3        1 MOL      0.000359
     59 C20        -7.4370   -1.7080    2.0340 c         1 MOL      0.507447
     60 O10        -8.4760   -1.2560    2.4100 o         1 MOL     -0.607130
     61 C21        -5.3340   -1.3660    3.5620 c3        1 MOL     -0.090819
     62 C22        -4.2150   -0.9960    2.5760 c         1 MOL      0.624833
     63 O11        -3.1500   -1.6570    2.5690 o         1 MOL     -0.667246
     64 O12        -4.4850   -0.1560    1.6700 o         1 MOL     -0.667246
     65 H26        -5.3420   -3.4340    1.4810 hn        1 MOL      0.276496
     66 H27        -6.9890   -2.6890    3.8400 h1        1 MOL      0.081312
     67 H28        -4.8100   -1.8900    4.3630 hc        1 MOL      0.007860
     68 H29        -5.8340   -0.5050    3.9950 hc        1 MOL      0.007860
     69 N6         -7.0900   -1.6460    0.7920 n         1 MOL     -0.253580
     70 C23        -7.8500   -1.0650   -0.3580 c3        1 MOL     -0.159245
     71 C24        -8.0060    0.4380   -0.2850 c         1 MOL      0.464971
     72 O13        -8.7740    1.0880   -0.9890 o         1 MOL     -0.596361
     73 H30        -6.1310   -1.9320    0.6180 hn        1 MOL      0.294149
     74 H31        -8.8270   -1.5500   -0.3770 h1        1 MOL      0.112303
     75 H32        -7.4490   -1.2470   -1.3510 h1        1 MOL      0.112303
     76 N7         -7.2620    1.0140    0.6750 n         1 MOL     -0.011804
     77 C25        -7.0350    2.3690    0.9510 c3        1 MOL      0.073242
     78 C26        -6.7530    3.3280   -0.2930 c         1 MOL      0.517099
     79 O14        -7.1550    4.4960   -0.2950 o         1 MOL     -0.527541
     80 C27        -7.9780    3.0390    1.9230 c3        1 MOL      0.054492
     81 C28        -7.9880    2.2430    3.2780 c3        1 MOL     -0.080835
     82 C29        -8.3720    3.1690    4.4780 c         1 MOL      0.596590
     83 N8         -8.8790    2.5040    5.5040 n         1 MOL     -0.755728
     84 O15        -8.2640    4.3960    4.3790 o         1 MOL     -0.548021
     85 H33        -6.6570    0.3150    1.0750 hn        1 MOL      0.049348
     86 H34        -6.0720    2.3000    1.4600 h1        1 MOL      0.033878
     87 H35        -8.9880    3.0270    1.5130 hc        1 MOL     -0.014349
     88 H36        -7.5530    4.0340    2.0430 hc        1 MOL     -0.014349
     89 H37        -6.9680    1.9100    3.4640 hc        1 MOL      0.027249
     90 H38        -8.7040    1.4290    3.1140 hc        1 MOL      0.027249
     91 H39        -8.9290    1.4970    5.4600 hn        1 MOL      0.333088
     92 H40        -9.0220    2.9340    6.4140 hn        1 MOL      0.333088
     93 N9         -6.0820    2.8390   -1.3570 n         1 MOL     -0.413464
     94 C30        -5.7690    3.6500   -2.5650 c3        1 MOL     -0.257235
     95 C31        -4.2340    3.6880   -2.8140 c         1 MOL      0.591960
     96 O16        -3.7140    4.4550   -3.6570 o         1 MOL     -0.576747
     97 C32        -6.4610    3.1140   -3.8040 c3        1 MOL      0.310244
     98 C33        -6.1650    1.6500   -4.0320 c3        1 MOL     -0.313432
     99 C34        -7.9460    3.3870   -3.6660 c3        1 MOL     -0.313432
    100 H41        -5.8990    1.8470   -1.3200 hn        1 MOL      0.281798
    101 H42        -6.0450    4.6840   -2.3580 h1        1 MOL      0.163534
    102 H43        -6.1320    3.6610   -4.6900 hc        1 MOL     -0.026721
    103 H44        -6.3110    1.1300   -3.0850 hc        1 MOL      0.073160
    104 H45        -6.7800    1.2960   -4.8580 hc        1 MOL      0.073160
    105 H46        -5.1190    1.5120   -4.2870 hc        1 MOL      0.073160
    106 H47        -8.3840    2.6680   -2.9680 hc        1 MOL      0.073160
    107 H48        -8.0950    4.3870   -3.2600 hc        1 MOL      0.073160
    108 H49        -8.4950    3.3010   -4.6110 hc        1 MOL      0.073160
    109 N10        -3.5180    2.7370   -2.1300 n         1 MOL     -0.338383
    110 C35        -2.0630    2.4730   -2.3220 c3        1 MOL      0.111467
    111 C36        -1.2010    2.9750   -1.1760 c         1 MOL      0.510461
    112 O17        -1.8020    3.2620   -0.1520 o         1 MOL     -0.526214
    113 C37        -1.9590    0.9640   -2.4740 c3        1 MOL     -0.070827
    114 C38        -0.5690    0.3670   -2.8080 c         1 MOL      0.447111
    115 N11        -0.1010   -0.3440   -1.8080 n         1 MOL     -0.633509
    116 O18         0.1480    0.7200   -3.7420 o         1 MOL     -0.555989
    117 H50        -3.9910    2.1640   -1.4460 hn        1 MOL      0.198034
    118 H51        -1.7510    2.8940   -3.2860 h1        1 MOL      0.041077
    119 H52        -2.6120    0.5310   -3.2310 hc        1 MOL      0.061432
    120 H53        -2.2840    0.4580   -1.5670 hc        1 MOL      0.061432
    121 H54        -0.6290   -0.6030   -0.9940 hn        1 MOL      0.332552
    122 H55         0.8020   -0.7660   -1.9760 hn        1 MOL      0.332552
    123 N12         0.1250    2.8790   -1.1960 n         1 MOL     -0.545525
    124 C39         0.9860    3.1240   -0.0330 c3        1 MOL      0.318986
    125 C40         2.3600    3.7530   -0.3530 c         1 MOL      0.273162
    126 O19         2.9610    3.3260   -1.3500 o         1 MOL     -0.537229
    127 C41         1.1170    1.7460    0.7220 c3        1 MOL     -0.064220
    128 C42         1.8490    1.9690    2.0450 ca        1 MOL     -0.050617
    129 C43         3.2570    1.6580    2.0990 ca        1 MOL     -0.122009
    130 C44         1.1450    2.4500    3.1260 ca        1 MOL     -0.122009
    131 C45         3.9120    1.7910    3.3030 ca        1 MOL     -0.254837
    132 C46         1.8620    2.5740    4.3560 ca        1 MOL     -0.254837
    133 C47         3.1850    2.2180    4.4590 ca        1 MOL      0.383880
    134 O20         3.7280    2.2010    5.6710 oh        1 MOL     -0.567292
    135 H56         0.5510    2.6140   -2.0710 hn        1 MOL      0.314496
    136 H57         0.4320    3.7720    0.6500 h1        1 MOL     -0.001390
    137 H58         1.7430    1.1230    0.0920 hc        1 MOL      0.091377
    138 H59         0.2290    1.1850    1.0120 hc        1 MOL      0.091377
    139 H60         3.7430    1.3820    1.1680 ha        1 MOL      0.137412
    140 H61         0.1330    2.7780    2.9440 ha        1 MOL      0.137412
    141 H62         4.9660    1.5640    3.4160 ha        1 MOL      0.130268
    142 H63         1.3910    2.8650    5.2830 ha        1 MOL      0.130268
    143 H64         4.6440    1.9210    5.6700 ho        1 MOL      0.403805
    144 N13         2.9190    4.6170    0.4500 n         1 MOL     -0.180054
    145 C48         4.2230    5.2490    0.1920 c3        1 MOL      0.069353
    146 C49         5.2700    4.6720    1.1040 c         1 MOL      0.498839
    147 O21         5.1570    4.9170    2.3230 o         1 MOL     -0.571402
    148 C50         3.9960    6.7990    0.2530 c3        1 MOL     -0.051371
    149 C51         2.9430    7.2480   -0.7550 c3        1 MOL     -0.151433
    150 C52         2.8670    8.7760   -0.7880 c         1 MOL      0.717275
    151 O22         3.3310    9.3580   -1.8070 o         1 MOL     -0.693043
    152 O23         2.4040    9.4070    0.1630 o         1 MOL     -0.693043
    153 H65         2.4930    4.8420    1.3410 hn        1 MOL      0.223207
    154 H66         4.5410    5.0520   -0.8260 h1        1 MOL      0.124959
    155 H67         4.9600    7.2490    0.0210 hc        1 MOL      0.035824
    156 H68         3.7380    7.0900    1.2730 hc        1 MOL      0.035824
    157 H69         1.9550    6.8880   -0.4890 hc        1 MOL      0.014958
    158 H70         3.2250    6.9120   -1.7550 hc        1 MOL      0.014958
    159 N14         6.2320    3.8240    0.7160 n         1 MOL     -0.548342
    160 C53         6.3270    3.0750   -0.5150 c3        1 MOL      0.045891
    161 C54         6.6810    4.0070   -1.6420 c         1 MOL      0.561580
    162 O24         7.4530    4.9630   -1.4130 o         1 MOL     -0.546827
    163 C55         7.2320    1.9070   -0.3730 c3        1 MOL     -0.067479
    164 C56         6.7270    0.8980    0.6710 c3        1 MOL     -0.169395
    165 C57         7.5300   -0.3480    0.8890 c         1 MOL      0.806703
    166 O25         7.8420   -1.0990   -0.0690 o         1 MOL     -0.741752
    167 O26         8.0330   -0.6180    2.0120 o         1 MOL     -0.741752
    168 H71         6.9370    3.5140    1.3780 hn        1 MOL      0.357505
    169 H72         5.3710    2.6400   -0.8210 h1        1 MOL      0.074393
    170 H73         8.1680    2.2790    0.0340 hc        1 MOL      0.000715
    171 H74         7.4890    1.4540   -1.3280 hc        1 MOL      0.000715
    172 H75         5.7230    0.5660    0.4060 hc        1 MOL      0.049964
    173 H76         6.6530    1.4620    1.5950 hc        1 MOL      0.049964
    174 N15         6.1690    3.6520   -2.8040 n         1 MOL     -0.432010
    175 C58         6.1050    4.5870   -3.9140 c3        1 MOL     -0.038155
    176 H77         6.3270    4.0630   -4.8430 h1        1 MOL      0.055233
    177 H78         5.1040    5.0160   -3.9700 h1        1 MOL      0.055233
    178 H79         6.8340    5.3830   -3.7620 h1        1 MOL      0.055233
    179 H80         5.4840    2.9130   -2.8640 hn        1 MOL      0.325940
    180 Ca1         8.3380   -3.2570    1.2740 Ca        1 MOL      1.654769
    181 O27         9.5940   -5.4990    1.3180 oh        1 MOL     -0.848132
    182 H81        10.5090   -5.4440    1.0550 ho        1 MOL      0.406127
    183 H82         9.4970   -6.3780    1.6770 ho        1 MOL      0.406127
    184 O28         7.2610   -4.6560    3.4610 oh        1 MOL     -0.848132
    185 H83         7.2880   -5.6170    3.4230 ho        1 MOL      0.406127
    186 H84         6.4150   -4.4560    3.8770 ho        1 MOL      0.406127
    187 O29         9.8460   -2.9580    3.3640 oh        1 MOL     -0.848132
    188 H85         9.5560   -3.3770    4.1760 ho        1 MOL      0.406127
    189 H86        10.6200   -2.4460    3.6210 ho        1 MOL      0.406127
    190 O30        10.5620   -2.1080    0.5860 oh        1 MOL     -0.848132
    191 H87        11.0530   -1.5760    1.2100 ho        1 MOL      0.406127
    192 H88        10.6490   -1.6540   -0.2480 ho        1 MOL      0.406127
@<TRIPOS>BOND
     1    1    2 1   
     2    1    4 1   
     3    1    5 1   
     4    1    6 1   
     5    2    3 2   
     6    2    7 1   
     7    7    8 1   
     8    7   15 1   
     9    8    9 1   
    10    8   11 1   
    11    8   16 1   
    12    9   10 2   
    13    9   19 1   
    14   11   12 1   
    15   11   17 1   
    16   11   18 1   
    17   12   13 1   
    18   12   14 1   
    19   19   20 1   
    20   19   27 1   
    21   20   21 1   
    22   20   23 1   
    23   20   28 1   
    24   21   22 2   
    25   21   38 1   
    26   23   24 1   
    27   23   25 1   
    28   23   29 1   
    29   24   26 1   
    30   24   30 1   
    31   24   31 1   
    32   25   32 1   
    33   25   33 1   
    34   25   34 1   
    35   26   35 1   
    36   26   36 1   
    37   26   37 1   
    38   38   39 1   
    39   38   46 1   
    40   39   40 1   
    41   39   42 1   
    42   39   47 1   
    43   40   41 2   
    44   40   50 1   
    45   42   43 1   
    46   42   48 1   
    47   42   49 1   
    48   43   44 1   
    49   43   45 1   
    50   50   51 1   
    51   50   54 1   
    52   51   52 1   
    53   51   55 1   
    54   51   56 1   
    55   52   53 2   
    56   52   57 1   
    57   57   58 1   
    58   57   65 1   
    59   58   59 1   
    60   58   61 1   
    61   58   66 1   
    62   59   60 2   
    63   59   69 1   
    64   61   62 1   
    65   61   67 1   
    66   61   68 1   
    67   62   63 1   
    68   62   64 1   
    69   69   70 1   
    70   69   73 1   
    71   70   71 1   
    72   70   74 1   
    73   70   75 1   
    74   71   72 2   
    75   71   76 1   
    76   76   77 1   
    77   76   85 1   
    78   77   78 1   
    79   77   80 1   
    80   77   86 1   
    81   78   79 2   
    82   78   93 1   
    83   80   81 1   
    84   80   87 1   
    85   80   88 1   
    86   81   82 1   
    87   81   89 1   
    88   81   90 1   
    89   82   83 1   
    90   82   84 2   
    91   83   91 1   
    92   83   92 1   
    93   93   94 1   
    94   93  100 1   
    95   94   95 1   
    96   94   97 1   
    97   94  101 1   
    98   95   96 2   
    99   95  109 1   
   100   97   98 1   
   101   97   99 1   
   102   97  102 1   
   103   98  103 1   
   104   98  104 1   
   105   98  105 1   
   106   99  106 1   
   107   99  107 1   
   108   99  108 1   
   109  109  110 1   
   110  109  117 1   
   111  110  111 1   
   112  110  113 1   
   113  110  118 1   
   114  111  112 2   
   115  111  123 1   
   116  113  114 1   
   117  113  119 1   
   118  113  120 1   
   119  114  115 1   
   120  114  116 2   
   121  115  121 1   
   122  115  122 1   
   123  123  124 1   
   124  123  135 1   
   125  124  125 1   
   126  124  127 1   
   127  124  136 1   
   128  125  126 2   
   129  125  144 1   
   130  127  128 1   
   131  127  137 1   
   132  127  138 1   
   133  128  129 ar  
   134  128  130 ar  
   135  129  131 ar  
   136  129  139 1   
   137  130  132 ar  
   138  130  140 1   
   139  131  133 ar  
   140  131  141 1   
   141  132  133 ar  
   142  132  142 1   
   143  133  134 1   
   144  134  143 1   
   145  144  145 1   
   146  144  153 1   
   147  145  146 1   
   148  145  148 1   
   149  145  154 1   
   150  146  147 2   
   151  146  159 1   
   152  148  149 1   
   153  148  155 1   
   154  148  156 1   
   155  149  150 1   
   156  149  157 1   
   157  149  158 1   
   158  150  151 1   
   159  150  152 1   
   160  159  160 1   
   161  159  168 1   
   162  160  161 1   
   163  160  163 1   
   164  160  169 1   
   165  161  162 2   
   166  161  174 1   
   167  163  164 1   
   168  163  170 1   
   169  163  171 1   
   170  164  165 1   
   171  164  172 1   
   172  164  173 1   
   173  165  166 1   
   174  165  167 1   
   175  174  175 1   
   176  174  179 1   
   177  175  176 1   
   178  175  177 1   
   179  175  178 1   
   180  181  182 1   
   181  181  183 1   
   182  184  185 1   
   183  184  186 1   
   184  187  188 1   
   185  187  189 1   
   186  190  191 1   
   187  190  192 1   
@<TRIPOS>SUBSTRUCTURE
     1 MOL         1 TEMP              0 ****  ****    0 ROOT
