@<TRIPOS>MOLECULE
MOL
  178   175     1     0     0
SMALL
resp


@<TRIPOS>ATOM
      1 C1          6.1600   -3.6260    5.3130 c3        1 MOL     -0.344979
      2 C2          6.0560   -2.0890    5.2080 c         1 MOL      0.677726
      3 O1          5.1240   -1.6190    5.8100 o         1 MOL     -0.584754
      4 H1          5.2720   -4.0160    5.8080 hc        1 MOL      0.084943
      5 H2          6.2370   -4.0530    4.3130 hc        1 MOL      0.084943
      6 H3          7.0450   -3.8920    5.8920 hc        1 MOL      0.084943
      7 N1          6.9120   -1.3680    4.5120 n         1 MOL     -0.450442
      8 C3          8.1620   -1.7100    3.8460 c3        1 MOL      0.068770
      9 C4          7.9190   -2.3170    2.4310 c         1 MOL      0.321832
     10 O2          7.0820   -1.9330    1.6330 o         1 MOL     -0.375096
     11 C5          9.1580   -0.4940    3.6260 c3        1 MOL     -0.171575
     12 C6          8.5470    0.7790    3.1370 c         1 MOL      0.728207
     13 O3          9.0030    1.9290    3.4290 o         1 MOL     -0.703881
     14 O4          7.6570    0.7200    2.2400 o         1 MOL     -0.703881
     15 H4          6.6820   -0.3820    4.5700 hn        1 MOL      0.278047
     16 H5          8.6590   -2.4620    4.4550 h1        1 MOL      0.052914
     17 H6          9.9400   -0.8210    2.9450 hc        1 MOL      0.042486
     18 H7          9.5450   -0.2510    4.6120 hc        1 MOL      0.042486
     19 N2          8.8000   -3.2840    2.0770 n         1 MOL     -0.405308
     20 C7          8.8840   -4.1980    0.9470 c3        1 MOL      0.277231
     21 C8          9.0510   -3.7260   -0.4790 c         1 MOL      0.233141
     22 O5          9.8120   -4.2490   -1.3310 o         1 MOL     -0.530312
     23 C9          7.6800   -5.2070    0.9840 c3        1 MOL     -0.533259
     24 H8          9.5270   -3.4520    2.7490 hn        1 MOL      0.256939
     25 H9          9.8130   -4.7250    1.1450 h1        1 MOL      0.028525
     26 H10         7.7410   -5.7910    0.0660 hc        1 MOL      0.158404
     27 H11         7.7330   -5.7950    1.9030 hc        1 MOL      0.158404
     28 H12         6.7330   -4.6840    0.8470 hc        1 MOL      0.158404
     29 N3          8.3230   -2.6670   -0.7280 n         1 MOL      0.026837
     30 C10         8.3410   -1.8060   -1.9700 c3        1 MOL      0.012147
     31 C11         8.2540   -0.3280   -1.5930 c         1 MOL      0.339913
     32 O6          8.0200    0.0260   -0.4540 o         1 MOL     -0.424390
     33 C12         7.1580   -2.2880   -2.8230 c3        1 MOL      0.057487
     34 C13         5.7920   -2.1950   -2.1080 c         1 MOL      0.603948
     35 O7          4.9590   -3.1240   -2.2050 o         1 MOL     -0.635596
     36 O8          5.4920   -1.1340   -1.5200 o         1 MOL     -0.635596
     37 H13         7.7580   -2.2990    0.0240 hn        1 MOL      0.035775
     38 H14         9.2770   -1.9930   -2.4830 h1        1 MOL      0.054353
     39 H15         7.2750   -3.2920   -3.2210 hc        1 MOL     -0.034873
     40 H16         7.2610   -1.6030   -3.6800 hc        1 MOL     -0.034873
     41 N4          8.3600    0.5930   -2.6150 n         1 MOL     -0.274231
     42 C14         8.1420    2.0810   -2.5490 c3        1 MOL     -0.425193
     43 C15         6.7230    2.5490   -2.0640 c         1 MOL      0.804412
     44 O9          6.1120    1.9620   -1.2000 o         1 MOL     -0.620955
     45 H17         8.4300    0.1270   -3.5070 hn        1 MOL      0.263910
     46 H18         8.2940    2.4650   -3.5580 h1        1 MOL      0.169860
     47 H19         8.9530    2.5050   -1.9630 h1        1 MOL      0.169860
     48 N5          6.2660    3.7090   -2.5270 n         1 MOL     -0.680512
     49 C16         5.0730    4.3350   -1.9450 c3        1 MOL      0.310727
     50 C17         3.8070    3.4520   -2.0640 c         1 MOL      0.338660
     51 O10         3.6810    2.6900   -3.0560 o         1 MOL     -0.454611
     52 C18         4.8070    5.7420   -2.6260 c3        1 MOL     -0.470841
     53 C19         3.9240    6.6750   -1.8740 c         1 MOL      0.711483
     54 N6          4.5230    7.2470   -0.8570 n         1 MOL     -0.820072
     55 O11         2.7670    6.7830   -2.2040 o         1 MOL     -0.521453
     56 H20         6.6480    4.0040   -3.4160 hn        1 MOL      0.352599
     57 H21         5.2480    4.4790   -0.8770 h1        1 MOL     -0.009173
     58 H22         4.4370    5.5140   -3.6220 hc        1 MOL      0.131404
     59 H23         5.7780    6.1720   -2.8620 hc        1 MOL      0.131404
     60 H24         5.5280    7.1110   -0.8470 hn        1 MOL      0.375589
     61 H25         4.1490    8.0870   -0.4450 hn        1 MOL      0.375589
     62 N7          2.9880    3.4030   -0.9940 n         1 MOL     -0.205095
     63 C20         1.8010    2.5230   -0.9970 c3        1 MOL     -0.218286
     64 C21         2.2320    1.0480   -0.8390 c         1 MOL      0.771303
     65 O12         3.1380    0.8400   -0.0130 o         1 MOL     -0.752398
     66 H26         3.2560    4.0130   -0.2360 hn        1 MOL      0.250903
     67 H27         1.3390    2.6440   -1.9720 h1        1 MOL      0.138122
     68 H28         1.2190    2.8580   -0.1390 h1        1 MOL      0.138122
     69 N8          1.7760    0.0350   -1.5130 n         1 MOL     -0.454309
     70 C22         0.9150    0.0920   -2.7030 c3        1 MOL      0.000954
     71 C23        -0.5740    0.3910   -2.4190 c         1 MOL      0.326949
     72 O13        -1.2330    0.8100   -3.3690 o         1 MOL     -0.513326
     73 C24         0.8870   -1.1980   -3.4470 c3        1 MOL      0.373323
     74 C25         2.1640   -1.4010   -4.2920 c3        1 MOL     -0.403184
     75 O14         0.7380   -2.2380   -2.5600 oh        1 MOL     -0.602360
     76 H29         2.0730   -0.8830   -1.2060 hn        1 MOL      0.302342
     77 H30         1.2760    0.8840   -3.3620 h1        1 MOL      0.098414
     78 H31         0.0320   -1.1280   -4.1140 h1        1 MOL      0.023301
     79 H32         0.1020   -2.8580   -2.9230 ho        1 MOL      0.405788
     80 H33         2.4690   -0.3880   -4.5340 hc        1 MOL      0.095807
     81 H34         2.9010   -2.0480   -3.8050 hc        1 MOL      0.095807
     82 H35         1.9080   -1.8770   -5.2390 hc        1 MOL      0.095807
     83 N9         -0.9870    0.1150   -1.2040 n         1 MOL     -0.202567
     84 C26        -2.1860    0.6990   -0.5960 c3        1 MOL      0.037072
     85 C27        -1.7470    1.5420    0.6150 c         1 MOL      0.483273
     86 O15        -0.7080    1.3250    1.2490 o         1 MOL     -0.580224
     87 C28        -3.3360   -0.3960   -0.4260 c3        1 MOL      0.113307
     88 C29        -3.1300   -1.0680    0.9050 c3        1 MOL     -0.023679
     89 C30        -3.4510   -1.4370   -1.5310 c3        1 MOL     -0.002449
     90 C31        -4.3570   -1.8310    1.4960 c3        1 MOL     -0.333553
     91 H36        -0.3390   -0.1980   -0.4880 hn        1 MOL      0.170918
     92 H37        -2.6030    1.4190   -1.3020 h1        1 MOL      0.100155
     93 H38        -4.2620    0.1780   -0.4410 hc        1 MOL     -0.027123
     94 H39        -2.7020   -0.3620    1.6170 hc        1 MOL      0.015218
     95 H40        -2.3100   -1.7570    0.7290 hc        1 MOL      0.015218
     96 H41        -3.5100   -0.8930   -2.4750 hc        1 MOL      0.008339
     97 H42        -2.5170   -1.9980   -1.5320 hc        1 MOL      0.008339
     98 H43        -4.3250   -2.0950   -1.5250 hc        1 MOL      0.008339
     99 H44        -4.7090   -2.6080    0.8120 hc        1 MOL      0.092610
    100 H45        -4.1060   -2.5020    2.3180 hc        1 MOL      0.092610
    101 H46        -5.2550   -1.2170    1.6180 hc        1 MOL      0.092610
    102 N10        -2.4650    2.6080    1.0730 n         1 MOL     -0.611524
    103 C32        -3.7620    3.1020    0.6760 c3        1 MOL      0.281746
    104 C33        -4.9400    2.4090    1.5350 c         1 MOL      0.693050
    105 O16        -4.7950    1.9230    2.6340 o         1 MOL     -0.597235
    106 C34        -3.6940    4.6480    0.7670 c3        1 MOL     -0.259540
    107 C35        -4.9830    5.2360    0.3050 c         1 MOL      0.758463
    108 O17        -5.4180    6.2180    0.9330 o         1 MOL     -0.730956
    109 O18        -5.5770    4.7080   -0.6150 o         1 MOL     -0.730956
    110 H47        -2.0040    2.9000    1.9220 hn        1 MOL      0.336851
    111 H48        -3.9810    2.8010   -0.3380 h1        1 MOL     -0.003089
    112 H49        -2.8530    5.0460    0.2020 hc        1 MOL      0.032668
    113 H50        -3.6330    4.9060    1.8230 hc        1 MOL      0.032668
    114 N11        -6.1390    2.3650    0.9790 n         1 MOL     -0.642082
    115 C36        -7.3820    1.6130    1.3640 c3        1 MOL      0.310823
    116 C37        -8.2870    1.7710    0.1250 c         1 MOL      0.203101
    117 O19        -8.4170    2.9080   -0.3730 o         1 MOL     -0.440832
    118 C38        -7.9980    2.1850    2.6200 c3        1 MOL     -0.139643
    119 C39        -9.3550    1.6630    3.1010 ca        1 MOL      0.000589
    120 C40       -10.5750    2.2290    2.6590 ca        1 MOL     -0.108866
    121 C41        -9.4040    0.5660    3.8750 ca        1 MOL     -0.108866
    122 C42       -11.7710    1.7080    3.0430 ca        1 MOL     -0.096292
    123 C43       -10.6640   -0.0880    4.1920 ca        1 MOL     -0.096292
    124 C44       -11.8330    0.4810    3.7490 ca        1 MOL     -0.177255
    125 H51        -6.3000    2.8730    0.1180 hn        1 MOL      0.338470
    126 H52        -7.2190    0.5410    1.5150 h1        1 MOL     -0.013464
    127 H53        -8.0310    3.2650    2.5480 hc        1 MOL      0.083313
    128 H54        -7.2400    2.0180    3.3880 hc        1 MOL      0.083313
    129 H55       -10.5890    3.1790    2.1480 ha        1 MOL      0.106625
    130 H56        -8.5660   -0.0030    4.2480 ha        1 MOL      0.106625
    131 H57       -12.6540    2.2020    2.6750 ha        1 MOL      0.095926
    132 H58       -10.6210   -0.9660    4.8090 ha        1 MOL      0.095926
    133 H59       -12.7800    0.1320    4.1270 ha        1 MOL      0.106280
    134 N12        -9.0890    0.8110   -0.3630 n         1 MOL      0.093417
    135 C45        -9.2080   -0.5830    0.0540 c3        1 MOL     -0.010612
    136 C46        -7.9660   -1.4210   -0.4070 c         1 MOL      0.689930
    137 O20        -6.9680   -0.9910   -1.0060 o         1 MOL     -0.524400
    138 C47       -10.5510   -0.9680   -0.5010 c3        1 MOL     -0.107282
    139 C48       -10.6220   -0.3410   -1.8070 c3        1 MOL     -0.050057
    140 C49        -9.8290    0.9330   -1.5680 c3        1 MOL     -0.003128
    141 H60        -9.1780   -0.6550    1.1440 h1        1 MOL     -0.014179
    142 H61       -10.6590   -2.0480   -0.6010 hc        1 MOL      0.026776
    143 H62       -11.3190   -0.5440    0.1570 hc        1 MOL      0.026776
    144 H63       -10.0780   -1.0740   -2.4030 hc        1 MOL      0.046387
    145 H64       -11.6580   -0.2930   -2.1370 hc        1 MOL      0.046387
    146 H65        -9.1490    1.0420   -2.4050 h1        1 MOL      0.031161
    147 H66       -10.4380    1.8440   -1.5390 h1        1 MOL      0.031161
    148 N13        -8.0820   -2.7680   -0.2520 n         1 MOL     -0.673411
    149 C50        -7.1040   -3.8240   -0.6510 c3        1 MOL      0.204742
    150 C51        -6.9050   -5.0890    0.2170 c         1 MOL      0.350357
    151 O21        -6.2380   -6.0240   -0.2420 o         1 MOL     -0.464206
    152 C52        -7.4780   -4.1560   -2.1350 c3        1 MOL      0.089869
    153 C53        -6.3000   -4.3370   -3.0450 c3        1 MOL     -0.307947
    154 C54        -6.6870   -4.6100   -4.4660 c         1 MOL      0.797021
    155 O22        -6.2120   -5.6120   -5.0700 o         1 MOL     -0.757865
    156 O23        -7.4980   -3.9240   -5.0580 o         1 MOL     -0.757865
    157 H67        -8.9570   -3.1170    0.1140 hn        1 MOL      0.319898
    158 H68        -6.1010   -3.4000   -0.6700 h1        1 MOL      0.108250
    159 H69        -8.0110   -3.2950   -2.5170 hc        1 MOL      0.001183
    160 H70        -8.2370   -4.9490   -2.1450 hc        1 MOL      0.001183
    161 H71        -5.8000   -5.1950   -2.5870 hc        1 MOL      0.023874
    162 H72        -5.5590   -3.5470   -2.9240 hc        1 MOL      0.023874
    163 N14        -7.2480   -5.0720    1.5670 n         1 MOL     -0.468073
    164 C55        -7.3680   -3.8920    2.4850 c3        1 MOL      0.154883
    165 H73        -7.4420   -4.2400    3.5140 h1        1 MOL     -0.004478
    166 H74        -6.4880   -3.2570    2.3780 h1        1 MOL     -0.004478
    167 H75        -8.2610   -3.3220    2.2290 h1        1 MOL     -0.004478
    168 H76        -7.0530   -5.9520    2.0310 hn        1 MOL      0.285697
    169 Ca1         5.6210    0.2040    0.6530 Ca        1 MOL      1.679139
    170 O24         4.3650   -0.0070    3.2000 oh        1 MOL     -0.781958
    171 H77         3.5380   -0.4970    3.1450 ho        1 MOL      0.393664
    172 H78         4.1060    0.8520    3.5360 ho        1 MOL      0.393664
    173 O25         5.2040    2.9000    1.5260 oh        1 MOL     -0.781958
    174 H79         4.6280    3.6640    1.5520 ho        1 MOL      0.393664
    175 H80         6.0650    3.2370    1.7510 ho        1 MOL      0.393664
    176 O26         3.9880   -2.0160    1.0220 oh        1 MOL     -0.781958
    177 H81         3.5960   -2.7680    0.5720 ho        1 MOL      0.393664
    178 H82         3.2770   -1.6420    1.5380 ho        1 MOL      0.393664
@<TRIPOS>BOND
     1    1    2 1   
     2    1    4 1   
     3    1    5 1   
     4    1    6 1   
     5    2    3 2   
     6    2    7 1   
     7    7    8 1   
     8    7   15 1   
     9    8    9 1   
    10    8   11 1   
    11    8   16 1   
    12    9   10 2   
    13    9   19 1   
    14   11   12 1   
    15   11   17 1   
    16   11   18 1   
    17   12   13 1   
    18   12   14 1   
    19   19   20 1   
    20   19   24 1   
    21   20   21 1   
    22   20   23 1   
    23   20   25 1   
    24   21   22 2   
    25   21   29 1   
    26   23   26 1   
    27   23   27 1   
    28   23   28 1   
    29   29   30 1   
    30   29   37 1   
    31   30   31 1   
    32   30   33 1   
    33   30   38 1   
    34   31   32 2   
    35   31   41 1   
    36   33   34 1   
    37   33   39 1   
    38   33   40 1   
    39   34   35 1   
    40   34   36 1   
    41   41   42 1   
    42   41   45 1   
    43   42   43 1   
    44   42   46 1   
    45   42   47 1   
    46   43   44 2   
    47   43   48 1   
    48   48   49 1   
    49   48   56 1   
    50   49   50 1   
    51   49   52 1   
    52   49   57 1   
    53   50   51 2   
    54   50   62 1   
    55   52   53 1   
    56   52   58 1   
    57   52   59 1   
    58   53   54 1   
    59   53   55 2   
    60   54   60 1   
    61   54   61 1   
    62   62   63 1   
    63   62   66 1   
    64   63   64 1   
    65   63   67 1   
    66   63   68 1   
    67   64   65 2   
    68   64   69 1   
    69   69   70 1   
    70   69   76 1   
    71   70   71 1   
    72   70   73 1   
    73   70   77 1   
    74   71   72 2   
    75   71   83 1   
    76   73   74 1   
    77   73   75 1   
    78   73   78 1   
    79   74   80 1   
    80   74   81 1   
    81   74   82 1   
    82   75   79 1   
    83   83   84 1   
    84   83   91 1   
    85   84   85 1   
    86   84   87 1   
    87   84   92 1   
    88   85   86 2   
    89   85  102 1   
    90   87   88 1   
    91   87   89 1   
    92   87   93 1   
    93   88   90 1   
    94   88   94 1   
    95   88   95 1   
    96   89   96 1   
    97   89   97 1   
    98   89   98 1   
    99   90   99 1   
   100   90  100 1   
   101   90  101 1   
   102  102  103 1   
   103  102  110 1   
   104  103  104 1   
   105  103  106 1   
   106  103  111 1   
   107  104  105 2   
   108  104  114 1   
   109  106  107 1   
   110  106  112 1   
   111  106  113 1   
   112  107  108 1   
   113  107  109 1   
   114  114  115 1   
   115  114  125 1   
   116  115  116 1   
   117  115  118 1   
   118  115  126 1   
   119  116  117 2   
   120  116  134 1   
   121  118  119 1   
   122  118  127 1   
   123  118  128 1   
   124  119  120 ar  
   125  119  121 ar  
   126  120  122 ar  
   127  120  129 1   
   128  121  123 ar  
   129  121  130 1   
   130  122  124 ar  
   131  122  131 1   
   132  123  124 ar  
   133  123  132 1   
   134  124  133 1   
   135  134  135 1   
   136  134  140 1   
   137  135  136 1   
   138  135  138 1   
   139  135  141 1   
   140  136  137 2   
   141  136  148 1   
   142  138  139 1   
   143  138  142 1   
   144  138  143 1   
   145  139  140 1   
   146  139  144 1   
   147  139  145 1   
   148  140  146 1   
   149  140  147 1   
   150  148  149 1   
   151  148  157 1   
   152  149  150 1   
   153  149  152 1   
   154  149  158 1   
   155  150  151 2   
   156  150  163 1   
   157  152  153 1   
   158  152  159 1   
   159  152  160 1   
   160  153  154 1   
   161  153  161 1   
   162  153  162 1   
   163  154  155 1   
   164  154  156 1   
   165  163  164 1   
   166  163  168 1   
   167  164  165 1   
   168  164  166 1   
   169  164  167 1   
   170  170  171 1   
   171  170  172 1   
   172  173  174 1   
   173  173  175 1   
   174  176  177 1   
   175  176  178 1   
@<TRIPOS>SUBSTRUCTURE
     1 MOL         1 TEMP              0 ****  ****    0 ROOT
