@<TRIPOS>MOLECULE
MOL
  201   193     1     0     0
SMALL
resp


@<TRIPOS>ATOM
      1 C1         -4.4710   -5.4300   -1.8150 c3        1 MOL     -0.372510
      2 C2         -5.3210   -4.2410   -2.4300 c         1 MOL      0.692804
      3 O1         -4.8530   -3.4470   -3.2600 o         1 MOL     -0.601138
      4 H1         -3.7770   -5.8060   -2.5670 hc        1 MOL      0.092484
      5 H2         -3.9100   -5.0690   -0.9540 hc        1 MOL      0.092484
      6 H3         -5.1390   -6.2330   -1.5040 hc        1 MOL      0.092484
      7 N1         -6.5360   -4.1720   -1.9920 n         1 MOL     -0.396679
      8 C3         -7.4930   -3.0570   -2.2590 c3        1 MOL     -0.269954
      9 C4         -6.9870   -1.7460   -1.6090 c         1 MOL      0.140118
     10 O2         -6.4160   -1.6960   -0.5020 o         1 MOL     -0.416002
     11 C5         -8.9040   -3.5400   -1.9160 c3        1 MOL      0.235678
     12 C6         -9.0530   -4.2500   -0.5110 c         1 MOL      0.544935
     13 O3        -10.1290   -4.7720   -0.1470 o         1 MOL     -0.668112
     14 O4         -8.0640   -4.1790    0.2870 o         1 MOL     -0.668112
     15 H4         -6.8950   -4.9240   -1.4280 hn        1 MOL      0.261763
     16 H5         -7.4560   -2.8150   -3.3170 h1        1 MOL      0.155787
     17 H6         -9.3030   -4.1400   -2.7470 hc        1 MOL     -0.004568
     18 H7         -9.6350   -2.7520   -2.0420 hc        1 MOL     -0.004568
     19 N2         -7.2580   -0.5970   -2.2840 n         1 MOL     -0.150290
     20 C7         -6.7520    0.7200   -1.8250 c3        1 MOL      0.137626
     21 C8         -7.7880    1.5870   -1.2230 c         1 MOL      0.240636
     22 O5         -8.0650    2.7400   -1.6420 o         1 MOL     -0.505847
     23 C9         -6.0180    1.5190   -2.9530 c3        1 MOL      0.015290
     24 C10        -5.0820    2.6760   -2.5280 c3        1 MOL     -0.041505
     25 C11        -4.4280    3.3830   -3.6710 c3        1 MOL     -0.238789
     26 C12        -3.4810    4.3800   -3.0800 c3        1 MOL      0.471298
     27 N3         -2.8840    5.2030   -4.2200 n4        1 MOL     -0.553787
     28 H8         -7.6570   -0.6690   -3.2090 hn        1 MOL      0.237345
     29 H9         -6.0640    0.5050   -1.0070 h1        1 MOL      0.032398
     30 H10        -6.6880    1.9300   -3.7090 hc        1 MOL      0.007950
     31 H11        -5.4430    0.7920   -3.5390 hc        1 MOL      0.007950
     32 H12        -4.2370    2.2420   -2.0030 hc        1 MOL      0.071783
     33 H13        -5.5830    3.4240   -1.9060 hc        1 MOL      0.071783
     34 H14        -5.2570    3.9680   -4.0870 hc        1 MOL      0.067817
     35 H15        -3.8730    2.7680   -4.3710 hc        1 MOL      0.067817
     36 H16        -2.8510    3.7220   -2.4730 hx        1 MOL     -0.045902
     37 H17        -3.9570    5.1410   -2.4610 hx        1 MOL     -0.045902
     38 H18        -3.5310    5.8330   -4.6810 hn        1 MOL      0.347343
     39 H19        -2.2820    5.9380   -3.8760 hn        1 MOL      0.347343
     40 H20        -2.3430    4.6400   -4.8580 hn        1 MOL      0.347343
     41 N4         -8.5040    1.0240   -0.2640 n         1 MOL     -0.071657
     42 C13        -9.6690    1.6270    0.4800 c3        1 MOL     -0.041010
     43 C14        -9.2710    2.0700    1.8840 c         1 MOL      0.498802
     44 O6         -9.4630    1.3230    2.8690 o         1 MOL     -0.563167
     45 C15       -10.7650    0.5520    0.4880 c3        1 MOL     -0.153149
     46 C16       -10.3460   -0.8750    1.0090 c         1 MOL      0.751165
     47 O7        -11.3030   -1.5200    1.5150 o         1 MOL     -0.684419
     48 O8         -9.1940   -1.3720    0.9050 o         1 MOL     -0.684419
     49 H21        -8.2500    0.0700   -0.0570 hn        1 MOL      0.028356
     50 H22       -10.0280    2.4990   -0.0540 h1        1 MOL      0.113039
     51 H23       -11.2260    0.4770   -0.4970 hc        1 MOL      0.058141
     52 H24       -11.6120    0.8020    1.1210 hc        1 MOL      0.058141
     53 N5         -8.9020    3.3580    2.0770 n         1 MOL     -0.287205
     54 C17        -8.7090    4.4870    1.1350 c3        1 MOL     -0.290520
     55 C18        -7.3050    4.8130    0.6620 c         1 MOL      0.545251
     56 O9         -7.0240    5.6140   -0.1980 o         1 MOL     -0.565788
     57 H25        -8.7870    3.5800    3.0470 hn        1 MOL      0.282613
     58 H26        -9.0620    5.3620    1.6800 h1        1 MOL      0.137526
     59 H27        -9.3300    4.3120    0.2550 h1        1 MOL      0.137526
     60 N6         -6.3000    4.3030    1.3660 n         1 MOL     -0.124846
     61 C19        -4.9110    4.6760    1.2100 c3        1 MOL      0.113631
     62 C20        -3.9820    3.3790    0.9740 c         1 MOL      0.412330
     63 O10        -4.4700    2.2140    1.0010 o         1 MOL     -0.508400
     64 C21        -4.4430    5.4880    2.4180 c3        1 MOL     -0.408007
     65 C22        -4.6240    4.8030    3.7320 c         1 MOL      0.765867
     66 O11        -4.9930    3.6170    3.8370 o         1 MOL     -0.704151
     67 O12        -4.2970    5.4250    4.7650 o         1 MOL     -0.704151
     68 H28        -6.5310    3.4970    1.9240 hn        1 MOL      0.111633
     69 H29        -4.7470    5.3420    0.3680 h1        1 MOL      0.037149
     70 H30        -4.9230    6.4680    2.3680 hc        1 MOL      0.099323
     71 H31        -3.3640    5.5930    2.2970 hc        1 MOL      0.099323
     72 N7         -2.6300    3.5700    0.8130 n         1 MOL     -0.380314
     73 C23        -1.6310    2.4580    0.8140 c3        1 MOL     -0.212770
     74 C24        -1.2020    1.7990   -0.4990 c         1 MOL      0.285968
     75 O13        -1.1960    2.3900   -1.6010 o         1 MOL     -0.397978
     76 H32        -2.2400    4.4980    0.8950 hn        1 MOL      0.267680
     77 H33        -1.8790    1.7540    1.5940 h1        1 MOL      0.175440
     78 H34        -0.6920    2.8900    1.1700 h1        1 MOL      0.175440
     79 N8         -0.8430    0.5220   -0.3400 n         1 MOL     -0.308676
     80 C25        -0.4570   -0.2970   -1.5380 c3        1 MOL      0.060893
     81 C26         0.7320   -1.2320   -1.2010 c         1 MOL      0.435398
     82 O14         0.9100   -1.6700   -0.0230 o         1 MOL     -0.494672
     83 C27        -1.5700   -1.2560   -1.9640 c3        1 MOL      0.359424
     84 C28        -2.9920   -0.6400   -1.9840 c3        1 MOL     -0.584538
     85 O15        -1.3350   -1.8750   -3.2080 oh        1 MOL     -0.594385
     86 H35        -0.8140    0.1070    0.5840 hn        1 MOL      0.235479
     87 H36        -0.1930    0.3700   -2.3590 h1        1 MOL      0.055831
     88 H37        -1.6810   -2.0330   -1.2030 h1        1 MOL      0.003339
     89 H38        -2.1070   -2.4250   -3.3970 ho        1 MOL      0.376854
     90 H39        -3.3200   -0.3930   -0.9760 hc        1 MOL      0.168623
     91 H40        -2.9740    0.2370   -2.6180 hc        1 MOL      0.168623
     92 H41        -3.7380   -1.3540   -2.3340 hc        1 MOL      0.168623
     93 N9          1.5300   -1.6600   -2.2220 n         1 MOL     -0.445576
     94 C29         2.6080   -2.5810   -1.9990 c3        1 MOL      0.152330
     95 C30         3.7970   -1.8820   -1.3460 c         1 MOL      0.404695
     96 O16         4.4890   -2.6070   -0.6690 o         1 MOL     -0.465669
     97 C31         3.0400   -3.2390   -3.2830 c3        1 MOL     -0.023174
     98 C32         1.8110   -3.8500   -4.0750 c3        1 MOL     -0.243170
     99 C33         4.0040   -4.4990   -2.9630 c3        1 MOL     -0.226429
    100 C34         0.8550   -4.7820   -3.1850 c3        1 MOL     -0.309803
    101 H42         1.2790   -1.4530   -3.1790 hn        1 MOL      0.306029
    102 H43         2.2230   -3.2970   -1.2730 h1        1 MOL      0.089813
    103 H44         3.5240   -2.4500   -3.8590 hc        1 MOL      0.034919
    104 H45         2.2460   -4.5340   -4.8100 hc        1 MOL      0.103467
    105 H46         1.2910   -3.0330   -4.5650 hc        1 MOL      0.103467
    106 H47         3.7610   -4.9760   -2.0160 hc        1 MOL      0.078448
    107 H48         4.1320   -5.2670   -3.7340 hc        1 MOL      0.078448
    108 H49         4.9930   -4.1340   -2.7130 hc        1 MOL      0.078448
    109 H50         1.4540   -5.6660   -2.9720 hc        1 MOL      0.105574
    110 H51         0.4020   -4.3000   -2.3200 hc        1 MOL      0.105574
    111 H52         0.0580   -5.2100   -3.7860 hc        1 MOL      0.105574
    112 N10         3.8890   -0.5270   -1.3160 n         1 MOL     -0.305651
    113 C35         4.8270    0.2320   -0.4080 c3        1 MOL     -0.064229
    114 C36         5.5420    1.4380   -1.0440 c         1 MOL      0.446566
    115 O17         4.8680    2.2900   -1.6470 o         1 MOL     -0.530886
    116 C37         4.0540    0.7520    0.8470 c3        1 MOL      0.333014
    117 C38         2.6740    1.3910    0.4520 c3        1 MOL     -0.228956
    118 O18         3.7010   -0.3700    1.6360 oh        1 MOL     -0.620838
    119 H53         3.4110    0.0190   -2.0110 hn        1 MOL      0.229179
    120 H54         5.6080   -0.4650   -0.1080 h1        1 MOL      0.105847
    121 H55         4.6030    1.4980    1.4290 h1        1 MOL      0.028700
    122 H56         2.7660   -0.5840    1.5340 ho        1 MOL      0.405255
    123 H57         2.3610    1.8980    1.3770 hc        1 MOL      0.050627
    124 H58         2.7980    2.2110   -0.2700 hc        1 MOL      0.050627
    125 H59         1.9930    0.6010    0.1460 hc        1 MOL      0.050627
    126 N11         6.8700    1.5040   -1.1020 n         1 MOL     -0.311322
    127 C39         7.7400    2.5000   -1.7060 c3        1 MOL     -0.031265
    128 C40         9.0870    1.8350   -1.8760 c         1 MOL      0.466181
    129 O19         9.3290    1.2950   -2.9420 o         1 MOL     -0.548401
    130 C41         7.7610    3.8450   -1.0590 c3        1 MOL      0.226671
    131 C42         8.7470    4.7890   -1.7670 c3        1 MOL     -0.239437
    132 O20         8.1040    3.7730    0.3150 oh        1 MOL     -0.645255
    133 H60         7.3560    0.7590   -0.6210 hn        1 MOL      0.224913
    134 H61         7.4160    2.7090   -2.7290 h1        1 MOL      0.109700
    135 H62         6.8290    4.3930   -1.1380 h1        1 MOL      0.059753
    136 H63         7.8890    4.6180    0.7030 ho        1 MOL      0.429264
    137 H64         9.7620    4.4890   -1.5200 hc        1 MOL      0.053070
    138 H65         8.5230    4.8700   -2.8300 hc        1 MOL      0.053070
    139 H66         8.5170    5.7650   -1.3520 hc        1 MOL      0.053070
    140 N12         9.8960    1.7530   -0.8410 n         1 MOL     -0.115912
    141 C43        11.0900    0.8590   -0.7560 c3        1 MOL     -0.032617
    142 C44        11.0450    0.0800    0.5690 c         1 MOL      0.426426
    143 O21        10.3090    0.5170    1.4570 o         1 MOL     -0.497744
    144 C45        12.4400    1.5530   -1.0100 c3        1 MOL     -0.221902
    145 C46        12.9620    2.5060    0.0700 c3        1 MOL      0.023914
    146 C47        14.3880    3.0800   -0.2520 c3        1 MOL     -0.006491
    147 C48        14.9800    3.9700    0.8420 c3        1 MOL     -0.155269
    148 N13        14.6910    5.4380    0.7430 n4        1 MOL     -0.163452
    149 H67         9.5850    2.1440    0.0410 hn        1 MOL      0.210429
    150 H68        11.1120    0.0650   -1.5100 h1        1 MOL      0.101229
    151 H69        12.2930    2.2020   -1.8780 hc        1 MOL      0.078029
    152 H70        13.1440    0.8030   -1.3690 hc        1 MOL      0.078029
    153 H71        13.0130    2.0010    1.0270 hc        1 MOL      0.025044
    154 H72        12.1990    3.2730    0.2120 hc        1 MOL      0.025044
    155 H73        14.3370    3.5500   -1.2350 hc        1 MOL      0.045605
    156 H74        15.0200    2.2240   -0.4840 hc        1 MOL      0.045605
    157 H75        16.0580    3.8450    0.7240 hx        1 MOL      0.142177
    158 H76        14.5970    3.4680    1.7310 hx        1 MOL      0.142177
    159 H77        15.1370    5.9570   -0.0020 hn        1 MOL      0.218534
    160 H78        13.7030    5.6300    0.6290 hn        1 MOL      0.218534
    161 H79        14.9240    5.8520    1.6270 hn        1 MOL      0.218534
    162 N14        11.6490   -1.0950    0.5960 n         1 MOL     -0.437633
    163 C49        11.5890   -2.0020    1.7960 c3        1 MOL      0.059864
    164 C50        10.2320   -2.6390    2.1320 c         1 MOL      0.525844
    165 O22         9.8350   -2.5770    3.2650 o         1 MOL     -0.533066
    166 C51        12.6660   -3.1740    1.7530 c3        1 MOL      0.109607
    167 C52        13.0710   -3.6580    3.1950 c3        1 MOL     -0.198696
    168 C53        14.4110   -4.4670    3.3270 c         1 MOL      0.687235
    169 O23        15.3190   -3.9620    4.0000 o         1 MOL     -0.633815
    170 O24        14.6360   -5.3980    2.6040 o         1 MOL     -0.633815
    171 H80        12.3790   -1.2640   -0.0770 hn        1 MOL      0.271725
    172 H81        11.8180   -1.3950    2.6740 h1        1 MOL      0.088905
    173 H82        13.5710   -2.7400    1.3230 hc        1 MOL     -0.004411
    174 H83        12.3260   -4.0200    1.1570 hc        1 MOL     -0.004411
    175 H84        12.2310   -4.2170    3.5870 hc        1 MOL      0.024160
    176 H85        13.1200   -2.7590    3.8090 hc        1 MOL      0.024160
    177 N15         9.4110   -3.0470    1.1330 n         1 MOL     -0.380480
    178 C54         9.7520   -3.7440   -0.1420 c3        1 MOL     -0.051970
    179 H86         9.8650   -4.8120    0.0470 h1        1 MOL      0.058574
    180 H87         8.9550   -3.5860   -0.8670 h1        1 MOL      0.058574
    181 H88        10.6870   -3.3450   -0.5370 h1        1 MOL      0.058574
    182 H89         8.4770   -3.1430    1.4920 hn        1 MOL      0.276908
    183 Ca1        -7.1490   -2.5000    2.0610 Ca        1 MOL      1.772210
    184 O25        -4.9330   -1.9640    3.4620 oh        1 MOL     -0.852484
    185 H90        -4.6070   -1.0780    3.3530 ho        1 MOL      0.422356
    186 H91        -4.2600   -2.4160    3.9720 ho        1 MOL      0.422356
    187 O26        -9.7440   -3.4580    2.9790 oh        1 MOL     -0.852484
    188 H92       -10.2820   -2.8600    2.4550 ho        1 MOL      0.422356
    189 H93        -9.9640   -4.3310    2.6530 ho        1 MOL      0.422356
    190 O27        -8.2440   -1.0010    4.0790 oh        1 MOL     -0.852484
    191 H94        -8.4490   -0.2840    3.4800 ho        1 MOL      0.422356
    192 H95        -9.0670   -1.1560    4.5470 ho        1 MOL      0.422356
    193 O28        -6.4890    0.4810    2.1180 oh        1 MOL     -0.852484
    194 H96        -5.7880    0.9720    1.6760 ho        1 MOL      0.422356
    195 H97        -6.5450    0.8690    2.9890 ho        1 MOL      0.422356
    196 O29        -7.0620   -4.8160    3.4090 oh        1 MOL     -0.852484
    197 H98        -7.7310   -5.4040    3.0740 ho        1 MOL      0.422356
    198 H99        -6.5950   -5.3360    4.0670 ho        1 MOL      0.422356
    199 O30        -4.7100   -3.9100    1.5960 oh        1 MOL     -0.852484
    200 H100       -4.0020   -3.2790    1.4850 ho        1 MOL      0.422356
    201 H101       -4.2780   -4.7140    1.8860 ho        1 MOL      0.422356
@<TRIPOS>BOND
     1    1    2 1   
     2    1    4 1   
     3    1    5 1   
     4    1    6 1   
     5    2    3 2   
     6    2    7 1   
     7    7    8 1   
     8    7   15 1   
     9    8    9 1   
    10    8   11 1   
    11    8   16 1   
    12    9   10 2   
    13    9   19 1   
    14   11   12 1   
    15   11   17 1   
    16   11   18 1   
    17   12   13 1   
    18   12   14 1   
    19   19   20 1   
    20   19   28 1   
    21   20   21 1   
    22   20   23 1   
    23   20   29 1   
    24   21   22 2   
    25   21   41 1   
    26   23   24 1   
    27   23   30 1   
    28   23   31 1   
    29   24   25 1   
    30   24   32 1   
    31   24   33 1   
    32   25   26 1   
    33   25   34 1   
    34   25   35 1   
    35   26   27 1   
    36   26   36 1   
    37   26   37 1   
    38   27   38 1   
    39   27   39 1   
    40   27   40 1   
    41   41   42 1   
    42   41   49 1   
    43   42   43 1   
    44   42   45 1   
    45   42   50 1   
    46   43   44 2   
    47   43   53 1   
    48   45   46 1   
    49   45   51 1   
    50   45   52 1   
    51   46   47 1   
    52   46   48 1   
    53   53   54 1   
    54   53   57 1   
    55   54   55 1   
    56   54   58 1   
    57   54   59 1   
    58   55   56 2   
    59   55   60 1   
    60   60   61 1   
    61   60   68 1   
    62   61   62 1   
    63   61   64 1   
    64   61   69 1   
    65   62   63 2   
    66   62   72 1   
    67   64   65 1   
    68   64   70 1   
    69   64   71 1   
    70   65   66 1   
    71   65   67 1   
    72   72   73 1   
    73   72   76 1   
    74   73   74 1   
    75   73   77 1   
    76   73   78 1   
    77   74   75 2   
    78   74   79 1   
    79   79   80 1   
    80   79   86 1   
    81   80   81 1   
    82   80   83 1   
    83   80   87 1   
    84   81   82 2   
    85   81   93 1   
    86   83   84 1   
    87   83   85 1   
    88   83   88 1   
    89   84   90 1   
    90   84   91 1   
    91   84   92 1   
    92   85   89 1   
    93   93   94 1   
    94   93  101 1   
    95   94   95 1   
    96   94   97 1   
    97   94  102 1   
    98   95   96 2   
    99   95  112 1   
   100   97   98 1   
   101   97   99 1   
   102   97  103 1   
   103   98  100 1   
   104   98  104 1   
   105   98  105 1   
   106   99  106 1   
   107   99  107 1   
   108   99  108 1   
   109  100  109 1   
   110  100  110 1   
   111  100  111 1   
   112  112  113 1   
   113  112  119 1   
   114  113  114 1   
   115  113  116 1   
   116  113  120 1   
   117  114  115 2   
   118  114  126 1   
   119  116  117 1   
   120  116  118 1   
   121  116  121 1   
   122  117  123 1   
   123  117  124 1   
   124  117  125 1   
   125  118  122 1   
   126  126  127 1   
   127  126  133 1   
   128  127  128 1   
   129  127  130 1   
   130  127  134 1   
   131  128  129 2   
   132  128  140 1   
   133  130  131 1   
   134  130  132 1   
   135  130  135 1   
   136  131  137 1   
   137  131  138 1   
   138  131  139 1   
   139  132  136 1   
   140  140  141 1   
   141  140  149 1   
   142  141  142 1   
   143  141  144 1   
   144  141  150 1   
   145  142  143 2   
   146  142  162 1   
   147  144  145 1   
   148  144  151 1   
   149  144  152 1   
   150  145  146 1   
   151  145  153 1   
   152  145  154 1   
   153  146  147 1   
   154  146  155 1   
   155  146  156 1   
   156  147  148 1   
   157  147  157 1   
   158  147  158 1   
   159  148  159 1   
   160  148  160 1   
   161  148  161 1   
   162  162  163 1   
   163  162  171 1   
   164  163  164 1   
   165  163  166 1   
   166  163  172 1   
   167  164  165 2   
   168  164  177 1   
   169  166  167 1   
   170  166  173 1   
   171  166  174 1   
   172  167  168 1   
   173  167  175 1   
   174  167  176 1   
   175  168  169 1   
   176  168  170 1   
   177  177  178 1   
   178  177  182 1   
   179  178  179 1   
   180  178  180 1   
   181  178  181 1   
   182  184  185 1   
   183  184  186 1   
   184  187  188 1   
   185  187  189 1   
   186  190  191 1   
   187  190  192 1   
   188  193  194 1   
   189  193  195 1   
   190  196  197 1   
   191  196  198 1   
   192  199  200 1   
   193  199  201 1   
@<TRIPOS>SUBSTRUCTURE
     1 MOL         1 TEMP              0 ****  ****    0 ROOT
