@<TRIPOS>MOLECULE
MOL
  192   187     1     0     0
SMALL
resp


@<TRIPOS>ATOM
      1 C1          5.6860    1.6190    6.1260 c3        1 MOL     -0.181277
      2 C2          5.2010    1.2690    4.7030 c         1 MOL      0.756750
      3 O1          4.6790    2.1510    4.0400 o         1 MOL     -0.621410
      4 H1          5.3190    0.8710    6.8280 hc        1 MOL      0.039339
      5 H2          6.7760    1.6320    6.1450 hc        1 MOL      0.039339
      6 H3          5.3060    2.6010    6.4090 hc        1 MOL      0.039339
      7 N1          5.3630    0.0530    4.1690 n         1 MOL     -0.535418
      8 C3          5.0780   -0.2990    2.7310 c3        1 MOL      0.202919
      9 C4          3.5930   -0.0590    2.2450 c         1 MOL     -0.010824
     10 O2          3.3170   -0.1140    1.0440 o         1 MOL     -0.091354
     11 C5          5.5120   -1.7450    2.4280 c3        1 MOL     -0.218978
     12 C6          6.8520   -2.1460    3.1430 c         1 MOL      0.716467
     13 O3          7.8510   -2.3560    2.4250 o         1 MOL     -0.700698
     14 O4          6.8200   -2.3020    4.4050 o         1 MOL     -0.700698
     15 H4          5.7390   -0.7050    4.7300 hn        1 MOL      0.250458
     16 H5          5.7160    0.3410    2.1290 h1        1 MOL      0.094007
     17 H6          5.5630   -1.9600    1.3560 hc        1 MOL      0.014571
     18 H7          4.7210   -2.3890    2.7940 hc        1 MOL      0.014571
     19 N2          2.6650    0.3520    3.1400 n         1 MOL     -0.134772
     20 C7          1.1310    0.3310    2.7620 c3        1 MOL     -0.043833
     21 C8          0.6050    1.6830    2.3140 c         1 MOL      0.227621
     22 O5          0.8550    2.7070    2.9770 o         1 MOL     -0.446085
     23 C9          0.4480   -0.2590    3.9680 c3        1 MOL     -0.543148
     24 C10         0.5460   -1.7950    4.0290 c3        1 MOL      0.045987
     25 C11        -0.3520   -2.3090    5.2200 c3        1 MOL      0.023413
     26 C12        -0.0930   -3.8110    5.6100 c3        1 MOL      0.104599
     27 N3         -1.0370   -4.3400    6.5630 n4        1 MOL     -0.242875
     28 H8          2.9960    0.6260    4.0480 hn        1 MOL      0.166611
     29 H9          0.9750   -0.3450    1.9210 h1        1 MOL      0.752614
     30 H10        -0.6030    0.0280    4.0210 hc        1 MOL      0.182368
     31 H11         0.8270    0.2350    4.8730 hc        1 MOL      0.182368
     32 H12         1.5770   -2.0520    4.2740 hc        1 MOL      0.005961
     33 H13         0.2960   -2.3100    3.0990 hc        1 MOL      0.005961
     34 H14        -1.4070   -2.1710    4.9650 hc        1 MOL      0.004797
     35 H15        -0.0920   -1.6970    6.0870 hc        1 MOL      0.004797
     36 H16         0.9050   -3.8940    6.0410 hx        1 MOL      0.053054
     37 H17        -0.1300   -4.4670    4.7430 hx        1 MOL      0.053054
     38 H18        -1.9680   -4.5690    6.2380 hn        1 MOL      0.295437
     39 H19        -0.5690   -5.0650    7.0880 hn        1 MOL      0.295437
     40 H20        -1.2410   -3.6540    7.2800 hn        1 MOL      0.295437
     41 N4         -0.2130    1.7440    1.2710 n         1 MOL     -0.054025
     42 C13        -0.7720    0.7810    0.3690 c3        1 MOL     -0.253990
     43 C14        -1.3850   -0.4840    0.9780 c         1 MOL      0.333359
     44 O6         -0.9030   -1.6110    0.7890 o         1 MOL     -0.540386
     45 C15         0.2300    0.6350   -0.8830 c3        1 MOL     -0.553998
     46 C16         0.0740    1.9170   -1.8040 c         1 MOL      0.449952
     47 O7          0.7990    2.0730   -2.8060 o         1 MOL     -0.598022
     48 O8         -0.8120    2.8330   -1.6370 o         1 MOL     -0.598022
     49 H21        -0.5700    2.6600    1.0360 hn        1 MOL      0.101540
     50 H22        -1.6940    1.1190   -0.1060 h1        1 MOL      0.010281
     51 H23        -0.0850   -0.2120   -1.4910 hc        1 MOL      0.312616
     52 H24         1.2520    0.6160   -0.5010 hc        1 MOL      0.312616
     53 N5         -2.4210   -0.4070    1.8200 n         1 MOL     -0.371566
     54 C17        -3.3070    0.7170    2.0180 c3        1 MOL      0.220336
     55 C18        -4.4550    0.3920    3.0800 c         1 MOL      0.333777
     56 O9         -4.4290   -0.6540    3.6880 o         1 MOL     -0.519231
     57 H25        -2.6840   -1.3050    2.2040 hn        1 MOL      0.262380
     58 H26        -3.8010    0.9220    1.0760 h1        1 MOL      0.015107
     59 H27        -2.7870    1.5890    2.4400 h1        1 MOL      0.015107
     60 N6         -5.3490    1.3170    3.2670 n         1 MOL     -0.346464
     61 C19        -5.5920    2.5250    2.3900 c3        1 MOL      0.112893
     62 C20        -6.4630    2.1460    1.1440 c         1 MOL      0.504137
     63 O10        -7.0980    1.1060    1.1140 o         1 MOL     -0.442288
     64 C21        -6.1900    3.7180    3.1450 c3        1 MOL     -0.281934
     65 C22        -7.3420    3.3420    4.1260 c         1 MOL      0.697729
     66 O11        -7.6890    2.1400    4.3500 o         1 MOL     -0.657142
     67 O12        -7.8980    4.2980    4.8220 o         1 MOL     -0.657142
     68 H28        -6.0430    1.1690    3.9780 hn        1 MOL      0.317491
     69 H29        -4.6450    2.9070    1.9990 h1        1 MOL     -0.029619
     70 H30        -6.5380    4.5250    2.4930 hc        1 MOL      0.059065
     71 H31        -5.4110    4.0780    3.8110 hc        1 MOL      0.059065
     72 N7         -6.4280    3.0030    0.1100 n         1 MOL     -0.288454
     73 C23        -7.1130    2.7960   -1.1960 c3        1 MOL     -0.336618
     74 C24        -6.8290    1.5030   -1.9910 c         1 MOL      0.444698
     75 O13        -7.8070    0.9370   -2.4630 o         1 MOL     -0.506604
     76 H32        -5.8900    3.8580    0.1910 hn        1 MOL      0.209341
     77 H33        -6.6980    3.6380   -1.7520 h1        1 MOL      0.165764
     78 H34        -8.1850    2.9700   -1.1080 h1        1 MOL      0.165764
     79 N8         -5.6030    1.1020   -2.1460 n         1 MOL     -0.219777
     80 C25        -5.2170   -0.2470   -2.6110 c3        1 MOL      0.016873
     81 C26        -4.4300   -0.9810   -1.5670 c         1 MOL      0.271004
     82 O14        -3.5970   -0.4640   -0.8760 o         1 MOL     -0.260911
     83 C27        -4.5860   -0.1960   -4.0400 c3        1 MOL      0.197034
     84 C28        -3.2400    0.5510   -4.0510 c3        1 MOL     -0.084723
     85 O15        -5.4880    0.4130   -4.9260 oh        1 MOL     -0.596374
     86 H35        -4.8700    1.6810   -1.7610 hn        1 MOL      0.170429
     87 H36        -6.1170   -0.8410   -2.7190 h1        1 MOL      0.079788
     88 H37        -4.4330   -1.2200   -4.3860 h1        1 MOL      0.072102
     89 H38        -5.5880    1.3470   -4.6970 ho        1 MOL      0.382559
     90 H39        -2.5160   -0.2380   -3.8500 hc        1 MOL      0.031739
     91 H40        -3.0540    0.8430   -5.0870 hc        1 MOL      0.031739
     92 H41        -3.2000    1.3630   -3.3310 hc        1 MOL      0.031739
     93 N9         -4.7740   -2.2260   -1.4100 n         1 MOL     -0.175704
     94 C29        -4.4020   -3.1370   -0.3240 c3        1 MOL     -0.047650
     95 C30        -3.2910   -4.1440   -0.6350 c         1 MOL      0.302775
     96 O16        -2.9730   -5.0040    0.1630 o         1 MOL     -0.519501
     97 C31        -5.6570   -3.6150    0.3890 c3        1 MOL      0.121935
     98 C32        -6.6410   -4.4650   -0.4590 c3        1 MOL      0.014847
     99 C33        -6.3590   -2.4430    0.9690 c3        1 MOL     -0.270308
    100 C34        -6.1980   -5.6840   -1.1280 c3        1 MOL     -0.202028
    101 H42        -5.5120   -2.5430   -2.0110 hn        1 MOL      0.221911
    102 H43        -3.9080   -2.4630    0.3740 h1        1 MOL      0.124881
    103 H44        -5.2840   -4.2090    1.2230 hc        1 MOL      0.029316
    104 H45        -6.9870   -3.7960   -1.2430 hc        1 MOL      0.015381
    105 H46        -7.5420   -4.6280    0.1450 hc        1 MOL      0.015381
    106 H47        -6.8940   -1.9670    0.1450 hc        1 MOL      0.071030
    107 H48        -7.0760   -2.7940    1.7070 hc        1 MOL      0.071030
    108 H49        -5.7340   -1.6410    1.3630 hc        1 MOL      0.071030
    109 H50        -5.4270   -6.1330   -0.5080 hc        1 MOL      0.052958
    110 H51        -7.0470   -6.2730   -1.4960 hc        1 MOL      0.052958
    111 H52        -5.6140   -5.4260   -2.0040 hc        1 MOL      0.052958
    112 N10        -2.6270   -4.0310   -1.7850 n         1 MOL      0.077770
    113 C35        -1.5060   -4.8580   -2.3900 c3        1 MOL     -0.105993
    114 C36        -0.0540   -4.5690   -1.9560 c         1 MOL      0.348833
    115 O17         0.7890   -5.4390   -2.2770 o         1 MOL     -0.494125
    116 C37        -1.7000   -4.8560   -3.8670 c3        1 MOL      0.317956
    117 C38        -1.6590   -3.4190   -4.4770 c3        1 MOL     -0.297852
    118 O18        -2.9370   -5.5280   -4.1410 oh        1 MOL     -0.667223
    119 H53        -3.0410   -3.2770   -2.3070 hn        1 MOL     -0.033619
    120 H54        -1.8390   -5.8320   -2.0300 h1        1 MOL      0.118814
    121 H55        -0.9110   -5.5090   -4.2350 h1        1 MOL      0.035015
    122 H56        -2.8000   -6.1410   -4.8680 ho        1 MOL      0.412268
    123 H57        -0.7030   -2.9830   -4.2090 hc        1 MOL      0.091372
    124 H58        -1.8150   -3.3580   -5.5540 hc        1 MOL      0.091372
    125 H59        -2.3790   -2.7230   -4.0560 hc        1 MOL      0.091372
    126 N11         0.2230   -3.4410   -1.2400 n         1 MOL     -0.137246
    127 C39         1.5840   -2.9650   -0.8470 c3        1 MOL      0.080167
    128 C40         2.4010   -2.4390   -2.0480 c         1 MOL      0.503192
    129 O19         2.2460   -2.8520   -3.2010 o         1 MOL     -0.510952
    130 C41         2.3720   -3.9480    0.0770 c3        1 MOL      0.241289
    131 C42         1.7380   -3.9590    1.4110 c3        1 MOL     -0.011386
    132 O20         3.7170   -3.6600    0.2400 oh        1 MOL     -0.548873
    133 H60        -0.5040   -2.7590   -1.0730 hn        1 MOL      0.142941
    134 H61         1.4290   -2.0900   -0.2230 h1        1 MOL     -0.140331
    135 H62         2.3210   -4.9500   -0.3500 h1        1 MOL      0.022032
    136 H63         4.1020   -4.4420    0.6400 ho        1 MOL      0.391624
    137 H64         2.0040   -4.8290    2.0140 hc        1 MOL     -0.018773
    138 H65         1.8710   -3.0080    1.9210 hc        1 MOL     -0.018773
    139 H66         0.6740   -3.9940    1.1800 hc        1 MOL     -0.018773
    140 N12         3.2270   -1.3430   -1.8160 n         1 MOL     -0.347993
    141 C43         4.1270   -0.7360   -2.8350 c3        1 MOL      0.036361
    142 C44         4.4890    0.7280   -2.5740 c         1 MOL      0.650383
    143 O21         4.9270    1.4600   -3.4440 o         1 MOL     -0.645639
    144 C45         5.3560   -1.6000   -2.9880 c3        1 MOL     -0.305152
    145 C46         6.2800   -1.6230   -1.7460 c3        1 MOL      0.175264
    146 C47         7.4660   -2.4980   -1.9820 c3        1 MOL     -0.018039
    147 C48         8.0210   -2.5980   -3.4020 c3        1 MOL      0.124654
    148 N13         9.1790   -3.5150   -3.4150 n4        1 MOL     -0.376834
    149 H67         3.1540   -0.9730   -0.8800 hn        1 MOL     -0.034039
    150 H68         3.7020   -0.7170   -3.8410 h1        1 MOL      0.109266
    151 H69         5.9190   -1.1770   -3.8140 hc        1 MOL      0.091192
    152 H70         5.1730   -2.6180   -3.3300 hc        1 MOL      0.091192
    153 H71         5.6560   -1.9250   -0.9120 hc        1 MOL     -0.012174
    154 H72         6.5920   -0.5950   -1.5350 hc        1 MOL     -0.012174
    155 H73         7.1770   -3.4930   -1.6280 hc        1 MOL      0.030598
    156 H74         8.2140   -2.1430   -1.2650 hc        1 MOL      0.030598
    157 H75         8.3040   -1.6020   -3.7690 hx        1 MOL      0.037583
    158 H76         7.2200   -2.9590   -4.0440 hx        1 MOL      0.037583
    159 H77         9.0620   -4.1910   -4.1650 hn        1 MOL      0.327358
    160 H78        10.0040   -2.9930   -3.6700 hn        1 MOL      0.327358
    161 H79         9.3930   -4.0260   -2.5730 hn        1 MOL      0.327358
    162 N14         4.1030    1.2740   -1.4240 n         1 MOL     -0.247481
    163 C49         4.3350    2.6050   -0.9140 c3        1 MOL     -0.210306
    164 C50         5.8090    2.9140   -0.5880 c         1 MOL      0.327289
    165 O22         6.3160    2.4590    0.4440 o         1 MOL     -0.459937
    166 C51         3.4790    2.9030    0.2930 c3        1 MOL      0.360336
    167 C52         3.1360    4.4130    0.5420 c3        1 MOL     -0.185210
    168 C53         2.8960    5.3820   -0.6480 c         1 MOL      0.519426
    169 O23         1.6910    5.5320   -1.0930 o         1 MOL     -0.674640
    170 O24         3.8670    5.9930   -1.1180 o         1 MOL     -0.674640
    171 H80         3.9220    0.6290   -0.6680 hn        1 MOL      0.117556
    172 H81         4.1180    3.3140   -1.7170 h1        1 MOL      0.217655
    173 H82         4.0110    2.5630    1.1720 hc        1 MOL     -0.059738
    174 H83         2.5550    2.3210    0.2740 hc        1 MOL     -0.059738
    175 H84         3.8960    4.8880    1.1660 hc        1 MOL      0.055166
    176 H85         2.2220    4.4140    1.1230 hc        1 MOL      0.055166
    177 N15         6.4440    3.7250   -1.4790 n         1 MOL     -0.121799
    178 C54         7.7710    4.2440   -1.5080 c3        1 MOL     -0.211540
    179 H86         7.9660    4.6870   -2.4840 h1        1 MOL      0.088806
    180 H87         7.8810    5.0050   -0.7350 h1        1 MOL      0.088806
    181 H88         8.4810    3.4370   -1.3270 h1        1 MOL      0.088806
    182 H89         5.8880    4.0550   -2.2490 hn        1 MOL      0.282315
    183 Ca1        -0.7200    5.3050   -1.6530 Ca        1 MOL      1.566831
    184 O25         1.5120    6.8980   -3.4470 oh        1 MOL     -0.782195
    185 H90         1.8350    6.5860   -2.6070 ho        1 MOL      0.381135
    186 H91         1.0220    7.6910   -3.2370 ho        1 MOL      0.381135
    187 O26        -0.1730    4.1890   -3.9610 oh        1 MOL     -0.782195
    188 H92         0.1090    3.3440   -3.6090 ho        1 MOL      0.381135
    189 H93        -0.4400    4.0030   -4.8560 ho        1 MOL      0.381135
    190 O27        -2.4400    5.9380   -3.4020 oh        1 MOL     -0.782195
    191 H94        -3.3420    5.6390   -3.2440 ho        1 MOL      0.381135
    192 H95        -2.5190    6.5830   -4.1010 ho        1 MOL      0.381135
@<TRIPOS>BOND
     1    1    2 1   
     2    1    4 1   
     3    1    5 1   
     4    1    6 1   
     5    2    3 2   
     6    2    7 1   
     7    7    8 1   
     8    7   15 1   
     9    8    9 1   
    10    8   11 1   
    11    8   16 1   
    12    9   10 2   
    13    9   19 1   
    14   11   12 1   
    15   11   17 1   
    16   11   18 1   
    17   12   13 1   
    18   12   14 1   
    19   19   20 1   
    20   19   28 1   
    21   20   21 1   
    22   20   23 1   
    23   20   29 1   
    24   21   22 2   
    25   21   41 1   
    26   23   24 1   
    27   23   30 1   
    28   23   31 1   
    29   24   25 1   
    30   24   32 1   
    31   24   33 1   
    32   25   26 1   
    33   25   34 1   
    34   25   35 1   
    35   26   27 1   
    36   26   36 1   
    37   26   37 1   
    38   27   38 1   
    39   27   39 1   
    40   27   40 1   
    41   41   42 1   
    42   41   49 1   
    43   42   43 1   
    44   42   45 1   
    45   42   50 1   
    46   43   44 2   
    47   43   53 1   
    48   45   46 1   
    49   45   51 1   
    50   45   52 1   
    51   46   47 1   
    52   46   48 1   
    53   53   54 1   
    54   53   57 1   
    55   54   55 1   
    56   54   58 1   
    57   54   59 1   
    58   55   56 2   
    59   55   60 1   
    60   60   61 1   
    61   60   68 1   
    62   61   62 1   
    63   61   64 1   
    64   61   69 1   
    65   62   63 2   
    66   62   72 1   
    67   64   65 1   
    68   64   70 1   
    69   64   71 1   
    70   65   66 1   
    71   65   67 1   
    72   72   73 1   
    73   72   76 1   
    74   73   74 1   
    75   73   77 1   
    76   73   78 1   
    77   74   75 2   
    78   74   79 1   
    79   79   80 1   
    80   79   86 1   
    81   80   81 1   
    82   80   83 1   
    83   80   87 1   
    84   81   82 2   
    85   81   93 1   
    86   83   84 1   
    87   83   85 1   
    88   83   88 1   
    89   84   90 1   
    90   84   91 1   
    91   84   92 1   
    92   85   89 1   
    93   93   94 1   
    94   93  101 1   
    95   94   95 1   
    96   94   97 1   
    97   94  102 1   
    98   95   96 2   
    99   95  112 1   
   100   97   98 1   
   101   97   99 1   
   102   97  103 1   
   103   98  100 1   
   104   98  104 1   
   105   98  105 1   
   106   99  106 1   
   107   99  107 1   
   108   99  108 1   
   109  100  109 1   
   110  100  110 1   
   111  100  111 1   
   112  112  113 1   
   113  112  119 1   
   114  113  114 1   
   115  113  116 1   
   116  113  120 1   
   117  114  115 2   
   118  114  126 1   
   119  116  117 1   
   120  116  118 1   
   121  116  121 1   
   122  117  123 1   
   123  117  124 1   
   124  117  125 1   
   125  118  122 1   
   126  126  127 1   
   127  126  133 1   
   128  127  128 1   
   129  127  130 1   
   130  127  134 1   
   131  128  129 2   
   132  128  140 1   
   133  130  131 1   
   134  130  132 1   
   135  130  135 1   
   136  131  137 1   
   137  131  138 1   
   138  131  139 1   
   139  132  136 1   
   140  140  141 1   
   141  140  149 1   
   142  141  142 1   
   143  141  144 1   
   144  141  150 1   
   145  142  143 2   
   146  142  162 1   
   147  144  145 1   
   148  144  151 1   
   149  144  152 1   
   150  145  146 1   
   151  145  153 1   
   152  145  154 1   
   153  146  147 1   
   154  146  155 1   
   155  146  156 1   
   156  147  148 1   
   157  147  157 1   
   158  147  158 1   
   159  148  159 1   
   160  148  160 1   
   161  148  161 1   
   162  162  163 1   
   163  162  171 1   
   164  163  164 1   
   165  163  166 1   
   166  163  172 1   
   167  164  165 2   
   168  164  177 1   
   169  166  167 1   
   170  166  173 1   
   171  166  174 1   
   172  167  168 1   
   173  167  175 1   
   174  167  176 1   
   175  168  169 1   
   176  168  170 1   
   177  177  178 1   
   178  177  182 1   
   179  178  179 1   
   180  178  180 1   
   181  178  181 1   
   182  184  185 1   
   183  184  186 1   
   184  187  188 1   
   185  187  189 1   
   186  190  191 1   
   187  190  192 1   
@<TRIPOS>SUBSTRUCTURE
     1 MOL         1 TEMP              0 ****  ****    0 ROOT
