@<TRIPOS>MOLECULE
MOL
  188   182     1     0     0
SMALL
resp


@<TRIPOS>ATOM
      1 C1         -6.4720   -2.8000    3.6490 c3        1 MOL     -0.380847
      2 C2         -6.8110   -2.3570    2.2310 c         1 MOL      0.690984
      3 O1         -5.9820   -1.9020    1.4140 o         1 MOL     -0.583470
      4 H1         -6.5010   -3.8880    3.7050 hc        1 MOL      0.101941
      5 H2         -5.4730   -2.4500    3.9110 hc        1 MOL      0.101941
      6 H3         -7.1980   -2.3820    4.3450 hc        1 MOL      0.101941
      7 N1         -8.0860   -2.5450    1.8760 n         1 MOL     -0.649338
      8 C3         -8.6660   -2.5520    0.5300 c3        1 MOL      0.543877
      9 C4         -8.5990   -1.1210   -0.0650 c         1 MOL      0.183326
     10 O2         -8.3970   -0.9420   -1.3140 o         1 MOL     -0.413138
     11 C5         -8.0730   -3.6790   -0.3420 c3        1 MOL     -0.460999
     12 C6         -9.0050   -4.2440   -1.4790 c         1 MOL      0.666229
     13 O3        -10.1110   -3.7400   -1.6680 o         1 MOL     -0.616032
     14 O4         -8.5570   -5.0510   -2.3080 o         1 MOL     -0.616032
     15 H4         -8.6690   -2.9430    2.6060 hn        1 MOL      0.305059
     16 H5         -9.7210   -2.7740    0.6910 h1        1 MOL     -0.050343
     17 H6         -7.6920   -4.4860    0.2790 hc        1 MOL      0.143664
     18 H7         -7.2600   -3.1590   -0.8450 hc        1 MOL      0.143664
     19 N2         -8.5410   -0.0510    0.7500 n         1 MOL     -0.311580
     20 C7         -8.5630    1.3120    0.1840 c3        1 MOL      0.082573
     21 C8         -7.2100    1.9450   -0.0900 c         1 MOL      0.473136
     22 O5         -7.0450    3.1100   -0.4780 o         1 MOL     -0.542659
     23 C9         -9.4640    2.2090    1.0840 c3        1 MOL      0.013409
     24 C10       -10.8610    1.6820    0.9470 c3        1 MOL      0.002188
     25 C11       -11.8650    2.5330    1.7060 c3        1 MOL     -0.034175
     26 C12       -12.1250    3.8910    1.0040 c3        1 MOL     -0.067314
     27 N3        -12.7480    4.8620    2.0300 n4        1 MOL     -0.154906
     28 H8         -8.4390   -0.2120    1.7400 hn        1 MOL      0.207932
     29 H9         -9.0100    1.2820   -0.8100 h1        1 MOL      0.109488
     30 H10        -9.3420    3.2520    0.8160 hc        1 MOL     -0.008854
     31 H11        -9.0740    2.0310    2.0860 hc        1 MOL     -0.008854
     32 H12       -10.9500    0.6640    1.3310 hc        1 MOL      0.035916
     33 H13       -11.1720    1.6580   -0.0990 hc        1 MOL      0.035916
     34 H14       -11.4560    2.5800    2.7150 hc        1 MOL      0.029449
     35 H15       -12.8110    2.0030    1.8290 hc        1 MOL      0.029449
     36 H16       -12.7440    3.6920    0.1340 hx        1 MOL      0.118032
     37 H17       -11.1820    4.3020    0.6370 hx        1 MOL      0.118032
     38 H18       -13.5290    4.4390    2.5170 hn        1 MOL      0.214398
     39 H19       -12.2170    5.2940    2.7720 hn        1 MOL      0.214398
     40 H20       -13.1520    5.6540    1.5620 hn        1 MOL      0.214398
     41 N4         -6.1220    1.1910    0.1750 n         1 MOL     -0.397381
     42 C13        -4.6970    1.6000    0.1020 c3        1 MOL      0.013500
     43 C14        -4.4610    2.1760   -1.3200 c         1 MOL      0.547376
     44 O6         -5.0240    1.6930   -2.3060 o         1 MOL     -0.459770
     45 C15        -3.7150    0.4830    0.5800 c3        1 MOL     -0.082659
     46 C16        -2.2600    1.1260    0.6530 c         1 MOL      0.441575
     47 O7         -1.7180    1.3940    1.7080 o         1 MOL     -0.652488
     48 O8         -1.5390    1.2440   -0.4140 o         1 MOL     -0.652488
     49 H21        -6.3510    0.2800    0.5620 hn        1 MOL      0.260094
     50 H22        -4.6360    2.4510    0.7730 h1        1 MOL      0.022714
     51 H23        -3.7120   -0.2710   -0.2020 hc        1 MOL      0.087789
     52 H24        -4.0700    0.0970    1.5330 hc        1 MOL      0.087789
     53 N5         -3.6660    3.2420   -1.4440 n         1 MOL     -0.397378
     54 C17        -3.4760    3.9470   -2.7020 c3        1 MOL      0.002152
     55 C18        -2.5250    3.1620   -3.6550 c         1 MOL      0.469233
     56 O9         -2.6670    3.2790   -4.8470 o         1 MOL     -0.522650
     57 H25        -3.2330    3.5970   -0.6000 hn        1 MOL      0.258811
     58 H26        -3.0050    4.9050   -2.5020 h1        1 MOL      0.068061
     59 H27        -4.4010    4.1550   -3.2280 h1        1 MOL      0.068061
     60 N6         -1.5640    2.4310   -3.1380 n         1 MOL     -0.387885
     61 C19        -0.8150    1.3510   -3.8280 c3        1 MOL      0.091224
     62 C20        -1.0530   -0.0140   -3.2320 c         1 MOL      0.395773
     63 O10        -0.2900   -0.9270   -3.4040 o         1 MOL     -0.509118
     64 C21         0.6650    1.6650   -4.0940 c3        1 MOL     -0.310612
     65 C22         1.5960    1.6810   -2.8820 c         1 MOL      0.661561
     66 N7          2.9000    1.6920   -3.1900 n         1 MOL     -0.754372
     67 O11         1.2480    1.7440   -1.7370 o         1 MOL     -0.642968
     68 H28        -1.5350    2.3480   -2.1310 hn        1 MOL      0.243051
     69 H29        -1.1170    1.2700   -4.8770 h1        1 MOL      0.100933
     70 H30         0.8160    2.6390   -4.5750 hc        1 MOL      0.122358
     71 H31         1.0690    0.9100   -4.7640 hc        1 MOL      0.122358
     72 H32         3.2350    1.9530   -4.1070 hn        1 MOL      0.360677
     73 H33         3.5220    1.6560   -2.3960 hn        1 MOL      0.360677
     74 N8         -2.2190   -0.1960   -2.6820 n         1 MOL     -0.104533
     75 C23        -2.8220   -1.5650   -2.5590 c3        1 MOL     -0.282541
     76 C24        -2.2510   -2.3920   -1.4050 c         1 MOL      0.694731
     77 O12        -2.5690   -3.5760   -1.3060 o         1 MOL     -0.551181
     78 H34        -2.7670    0.6480   -2.5890 hn        1 MOL      0.156123
     79 H35        -2.5460   -2.1250   -3.4450 h1        1 MOL      0.145710
     80 H36        -3.9070   -1.5540   -2.4720 h1        1 MOL      0.145710
     81 N9         -1.4490   -1.7510   -0.5160 n         1 MOL     -0.545063
     82 C25        -0.7400   -2.4290    0.4900 c3        1 MOL      0.023951
     83 C26         0.6140   -1.6070    0.6460 c         1 MOL      0.609177
     84 O13         0.7170   -0.4030    0.6290 o         1 MOL     -0.541475
     85 C27        -1.5370   -2.4230    1.8070 c3        1 MOL     -0.252036
     86 C28        -0.8510   -2.8670    3.0470 ca        1 MOL      0.073344
     87 C29        -0.3270   -4.2060    3.1110 ca        1 MOL     -0.145538
     88 C30        -0.8210   -1.9910    4.1070 ca        1 MOL     -0.145538
     89 C31         0.1760   -4.6560    4.3750 ca        1 MOL     -0.246868
     90 C32        -0.2720   -2.4300    5.2630 ca        1 MOL     -0.246868
     91 C33         0.2970   -3.7480    5.4600 ca        1 MOL      0.281749
     92 O14         0.6560   -4.2310    6.7050 oh        1 MOL     -0.427869
     93 H37        -1.5390   -0.7430   -0.5430 hn        1 MOL      0.291439
     94 H38        -0.4180   -3.3790    0.0700 h1        1 MOL      0.079253
     95 H39        -2.4630   -2.9920    1.6740 hc        1 MOL      0.134348
     96 H40        -1.7500   -1.3560    1.9080 hc        1 MOL      0.134348
     97 H41        -0.3280   -4.8650    2.2650 ha        1 MOL      0.138283
     98 H42        -1.2930   -1.0170    4.0990 ha        1 MOL      0.138283
     99 H43         0.4750   -5.6670    4.5790 ha        1 MOL      0.141727
    100 H44        -0.4930   -1.7750    6.0950 ha        1 MOL      0.141727
    101 H45         0.6090   -3.4680    7.2910 ho        1 MOL      0.330977
    102 N10         1.6820   -2.4380    0.8160 n         1 MOL     -0.435790
    103 C34         3.0700   -1.9720    0.6410 c3        1 MOL     -0.128497
    104 C35         3.2630   -1.4700   -0.7920 c         1 MOL      0.615356
    105 O15         3.6680   -0.3290   -0.9220 o         1 MOL     -0.566237
    106 C36         4.1770   -3.0280    1.0240 c3        1 MOL      0.089495
    107 C37         3.8970   -3.7580    2.3700 c3        1 MOL     -0.016579
    108 C38         5.6090   -2.4080    0.9240 c3        1 MOL     -0.391106
    109 C39         4.0930   -2.8330    3.5550 c3        1 MOL     -0.162363
    110 H46         1.4910   -3.4330    0.7530 hn        1 MOL      0.259702
    111 H47         3.2680   -1.1100    1.2820 h1        1 MOL      0.096353
    112 H48         4.1860   -3.8800    0.3420 hc        1 MOL     -0.040236
    113 H49         4.6740   -4.5190    2.4060 hc        1 MOL      0.051147
    114 H50         2.9700   -4.3260    2.3660 hc        1 MOL      0.051147
    115 H51         6.3310   -3.0740    1.4090 hc        1 MOL      0.105530
    116 H52         5.9440   -2.0810   -0.0640 hc        1 MOL      0.105530
    117 H53         5.5760   -1.5020    1.5230 hc        1 MOL      0.105530
    118 H54         3.9110   -3.3380    4.4990 hc        1 MOL      0.045934
    119 H55         5.0840   -2.3880    3.5390 hc        1 MOL      0.045934
    120 H56         3.3730   -2.0200    3.4880 hc        1 MOL      0.045934
    121 N11         2.9480   -2.2850   -1.7920 n         1 MOL     -0.260662
    122 C40         3.0130   -1.8390   -3.2040 c3        1 MOL     -0.053557
    123 C41         4.5490   -1.7260   -3.6040 c         1 MOL      0.334599
    124 O16         4.9910   -0.8830   -4.4490 o         1 MOL     -0.505904
    125 C42         2.3010   -2.7750   -4.2150 c3        1 MOL      0.197576
    126 O17         2.3920   -4.1530   -3.9240 oh        1 MOL     -0.659767
    127 H57         2.3400   -3.0640   -1.6140 hn        1 MOL      0.250861
    128 H58         2.6750   -0.8020   -3.1530 h1        1 MOL      0.094032
    129 H59         2.7110   -2.5210   -5.1980 h1        1 MOL      0.033864
    130 H60         1.2310   -2.5640   -4.2620 h1        1 MOL      0.033864
    131 H61         1.9760   -4.7050   -4.6000 ho        1 MOL      0.440398
    132 N12         5.3880   -2.5060   -2.9020 n         1 MOL     -0.038473
    133 C43         6.8320   -2.5450   -3.0190 c3        1 MOL      0.058756
    134 C44         7.5160   -1.2090   -2.6500 c         1 MOL      0.409329
    135 O18         8.6450   -0.9450   -3.0900 o         1 MOL     -0.519705
    136 C45         7.2330   -3.1420   -4.3380 c3        1 MOL     -0.511254
    137 H62         4.9530   -3.3120   -2.4630 hn        1 MOL      0.140810
    138 H63         7.0270   -3.2790   -2.2400 h1        1 MOL      0.073329
    139 H64         8.3010   -3.3820   -4.3120 hc        1 MOL      0.152942
    140 H65         6.6910   -4.0570   -4.5960 hc        1 MOL      0.152942
    141 H66         7.0940   -2.4300   -5.1450 hc        1 MOL      0.152942
    142 N13         6.8900   -0.3160   -1.9380 n         1 MOL     -0.237978
    143 C46         7.4420    0.9940   -1.4940 c3        1 MOL      0.107073
    144 C47         7.9450    0.9800   -0.0570 c         1 MOL      0.516457
    145 O19         7.4840    0.2300    0.7680 o         1 MOL     -0.464328
    146 C48         6.4030    2.1240   -1.8450 c3        1 MOL     -0.297662
    147 H67         6.0020   -0.5500   -1.5150 hn        1 MOL      0.218497
    148 H68         8.3570    1.1930   -2.0540 h1        1 MOL      0.031542
    149 H69         6.2980    2.3400   -2.9110 hc        1 MOL      0.089063
    150 H70         5.3780    1.8310   -1.6030 hc        1 MOL      0.089063
    151 H71         6.7200    3.0900   -1.4650 hc        1 MOL      0.089063
    152 N14         8.8540    1.9290    0.2720 n         1 MOL     -0.550205
    153 C49         9.7010    1.9340    1.5090 c3        1 MOL     -0.042221
    154 C50        10.2380    0.6250    2.0440 c         1 MOL      0.428290
    155 O20        10.5430    0.5360    3.2410 o         1 MOL     -0.517012
    156 C51         9.0460    2.7480    2.6060 c3        1 MOL      0.240617
    157 C52         8.4420    4.1200    2.2160 c3        1 MOL     -0.135766
    158 C53         7.3910    4.6160    3.1800 c         1 MOL      0.619160
    159 O21         7.7210    5.4570    4.1350 o         1 MOL     -0.711063
    160 O22         6.2240    4.2360    2.9730 o         1 MOL     -0.711063
    161 H72         9.1480    2.5730   -0.4480 hn        1 MOL      0.330221
    162 H73        10.6360    2.4570    1.2920 h1        1 MOL      0.078968
    163 H74         9.6980    3.0110    3.4300 hc        1 MOL     -0.015274
    164 H75         8.2430    2.1300    3.0110 hc        1 MOL     -0.015274
    165 H76         7.9220    3.9900    1.2600 hc        1 MOL     -0.010950
    166 H77         9.2550    4.7970    1.9480 hc        1 MOL     -0.010950
    167 N15        10.4370   -0.4390    1.2890 n         1 MOL     -0.272620
    168 C54        10.9210   -1.7400    1.8130 c3        1 MOL     -0.082473
    169 H78        10.2370   -2.5320    1.5060 h1        1 MOL      0.071604
    170 H79        11.9150   -1.9460    1.4170 h1        1 MOL      0.071604
    171 H80        10.9640   -1.7000    2.9020 h1        1 MOL      0.071604
    172 H81        10.2870   -0.3840    0.2910 hn        1 MOL      0.221904
    173 Ca1         0.5960    2.3360    0.7600 Ca        1 MOL      1.803494
    174 O23        -0.0350    4.2880   -1.0950 oh        1 MOL     -0.865444
    175 H82         0.2940    4.4510   -1.9770 ho        1 MOL      0.429996
    176 H83        -0.6420    5.0080   -0.9220 ho        1 MOL      0.429996
    177 O24         0.8450    2.4370    3.4400 oh        1 MOL     -0.865444
    178 H84         1.6060    1.9400    3.7450 ho        1 MOL      0.429996
    179 H85         0.6640    3.0550    4.1520 ho        1 MOL      0.429996
    180 O25         2.5270    4.0440    1.3670 oh        1 MOL     -0.865444
    181 H86         2.3950    4.8410    1.8720 ho        1 MOL      0.429996
    182 H87         3.4640    3.8670    1.4340 ho        1 MOL      0.429996
    183 O26         3.1360    1.3330    1.0570 oh        1 MOL     -0.865444
    184 H88         3.2970    0.6490    0.4090 ho        1 MOL      0.429996
    185 H89         3.9740    1.4650    1.4830 ho        1 MOL      0.429996
    186 O27        -0.5960    4.5350    1.7890 oh        1 MOL     -0.865444
    187 H90        -0.5000    4.6620    2.7320 ho        1 MOL      0.429996
    188 H91        -1.5160    4.7200    1.6180 ho        1 MOL      0.429996
@<TRIPOS>BOND
     1    1    2 1   
     2    1    4 1   
     3    1    5 1   
     4    1    6 1   
     5    2    3 2   
     6    2    7 1   
     7    7    8 1   
     8    7   15 1   
     9    8    9 1   
    10    8   11 1   
    11    8   16 1   
    12    9   10 2   
    13    9   19 1   
    14   11   12 1   
    15   11   17 1   
    16   11   18 1   
    17   12   13 1   
    18   12   14 1   
    19   19   20 1   
    20   19   28 1   
    21   20   21 1   
    22   20   23 1   
    23   20   29 1   
    24   21   22 2   
    25   21   41 1   
    26   23   24 1   
    27   23   30 1   
    28   23   31 1   
    29   24   25 1   
    30   24   32 1   
    31   24   33 1   
    32   25   26 1   
    33   25   34 1   
    34   25   35 1   
    35   26   27 1   
    36   26   36 1   
    37   26   37 1   
    38   27   38 1   
    39   27   39 1   
    40   27   40 1   
    41   41   42 1   
    42   41   49 1   
    43   42   43 1   
    44   42   45 1   
    45   42   50 1   
    46   43   44 2   
    47   43   53 1   
    48   45   46 1   
    49   45   51 1   
    50   45   52 1   
    51   46   47 1   
    52   46   48 1   
    53   53   54 1   
    54   53   57 1   
    55   54   55 1   
    56   54   58 1   
    57   54   59 1   
    58   55   56 2   
    59   55   60 1   
    60   60   61 1   
    61   60   68 1   
    62   61   62 1   
    63   61   64 1   
    64   61   69 1   
    65   62   63 2   
    66   62   74 1   
    67   64   65 1   
    68   64   70 1   
    69   64   71 1   
    70   65   66 1   
    71   65   67 2   
    72   66   72 1   
    73   66   73 1   
    74   74   75 1   
    75   74   78 1   
    76   75   76 1   
    77   75   79 1   
    78   75   80 1   
    79   76   77 2   
    80   76   81 1   
    81   81   82 1   
    82   81   93 1   
    83   82   83 1   
    84   82   85 1   
    85   82   94 1   
    86   83   84 2   
    87   83  102 1   
    88   85   86 1   
    89   85   95 1   
    90   85   96 1   
    91   86   87 ar  
    92   86   88 ar  
    93   87   89 ar  
    94   87   97 1   
    95   88   90 ar  
    96   88   98 1   
    97   89   91 ar  
    98   89   99 1   
    99   90   91 ar  
   100   90  100 1   
   101   91   92 1   
   102   92  101 1   
   103  102  103 1   
   104  102  110 1   
   105  103  104 1   
   106  103  106 1   
   107  103  111 1   
   108  104  105 2   
   109  104  121 1   
   110  106  107 1   
   111  106  108 1   
   112  106  112 1   
   113  107  109 1   
   114  107  113 1   
   115  107  114 1   
   116  108  115 1   
   117  108  116 1   
   118  108  117 1   
   119  109  118 1   
   120  109  119 1   
   121  109  120 1   
   122  121  122 1   
   123  121  127 1   
   124  122  123 1   
   125  122  125 1   
   126  122  128 1   
   127  123  124 2   
   128  123  132 1   
   129  125  126 1   
   130  125  129 1   
   131  125  130 1   
   132  126  131 1   
   133  132  133 1   
   134  132  137 1   
   135  133  134 1   
   136  133  136 1   
   137  133  138 1   
   138  134  135 2   
   139  134  142 1   
   140  136  139 1   
   141  136  140 1   
   142  136  141 1   
   143  142  143 1   
   144  142  147 1   
   145  143  144 1   
   146  143  146 1   
   147  143  148 1   
   148  144  145 2   
   149  144  152 1   
   150  146  149 1   
   151  146  150 1   
   152  146  151 1   
   153  152  153 1   
   154  152  161 1   
   155  153  154 1   
   156  153  156 1   
   157  153  162 1   
   158  154  155 2   
   159  154  167 1   
   160  156  157 1   
   161  156  163 1   
   162  156  164 1   
   163  157  158 1   
   164  157  165 1   
   165  157  166 1   
   166  158  159 1   
   167  158  160 1   
   168  167  168 1   
   169  167  172 1   
   170  168  169 1   
   171  168  170 1   
   172  168  171 1   
   173  174  175 1   
   174  174  176 1   
   175  177  178 1   
   176  177  179 1   
   177  180  181 1   
   178  180  182 1   
   179  183  184 1   
   180  183  185 1   
   181  186  187 1   
   182  186  188 1   
@<TRIPOS>SUBSTRUCTURE
     1 MOL         1 TEMP              0 ****  ****    0 ROOT
