@<TRIPOS>MOLECULE
MOL
  179   176     1     0     0
SMALL
resp


@<TRIPOS>ATOM
      1 C1          0.9690   -5.0310    6.2530 c3        1 MOL     -0.330554
      2 C2          0.8690   -4.7310    4.7460 c         1 MOL      0.675385
      3 O1         -0.0430   -5.2310    4.0230 o         1 MOL     -0.601728
      4 H1          1.6090   -5.8980    6.4090 hc        1 MOL      0.094212
      5 H2          1.3950   -4.1690    6.7680 hc        1 MOL      0.094212
      6 H3         -0.0250   -5.2370    6.6510 hc        1 MOL      0.094212
      7 N1          1.7840   -3.8770    4.2420 n         1 MOL     -0.630911
      8 C3          1.9110   -3.5220    2.8400 c3        1 MOL      0.176720
      9 C4          2.4890   -4.6030    1.8680 c         1 MOL      0.520976
     10 O2          3.6370   -4.9430    1.9530 o         1 MOL     -0.496482
     11 C5          2.7730   -2.2820    2.8530 c3        1 MOL     -0.046518
     12 C6          2.7860   -1.5350    1.4910 c         1 MOL      0.713222
     13 O3          3.5360   -0.5130    1.3190 o         1 MOL     -0.758252
     14 O4          2.1690   -1.9600    0.5400 o         1 MOL     -0.758252
     15 H4          2.5590   -3.6730    4.8520 hn        1 MOL      0.328614
     16 H5          0.9480   -3.1480    2.4970 h1        1 MOL      0.050186
     17 H6          3.7930   -2.5600    3.1210 hc        1 MOL      0.016207
     18 H7          2.3840   -1.5360    3.5470 hc        1 MOL      0.016207
     19 N2          1.5750   -5.0200    0.9100 n         1 MOL     -0.359805
     20 C7          1.7770   -6.0200   -0.2220 c3        1 MOL      0.002933
     21 C8          2.8320   -5.6580   -1.2720 c         1 MOL      0.499130
     22 O5          3.4940   -6.5540   -1.8080 o         1 MOL     -0.561783
     23 C9          0.3600   -6.2410   -0.7970 c3        1 MOL     -0.237056
     24 C10         0.2400   -6.9850   -2.1120 c3        1 MOL      0.001579
     25 C11        -1.1460   -6.8810   -2.5910 c3        1 MOL      0.018197
     26 C12        -1.3700   -7.6160   -3.9440 c3        1 MOL     -0.041122
     27 N3         -2.7680   -7.4950   -4.3430 n4        1 MOL     -0.109315
     28 H8          0.6760   -4.5640    0.9730 hn        1 MOL      0.225723
     29 H9          2.1130   -6.9130    0.2890 h1        1 MOL      0.119446
     30 H10        -0.1220   -5.2690   -0.9280 hc        1 MOL      0.109127
     31 H11        -0.2190   -6.7750   -0.0570 hc        1 MOL      0.109127
     32 H12         0.5330   -8.0230   -1.9750 hc        1 MOL      0.041200
     33 H13         0.9120   -6.6270   -2.8830 hc        1 MOL      0.041200
     34 H14        -1.4660   -5.8430   -2.6040 hc        1 MOL      0.020214
     35 H15        -1.8380   -7.4200   -1.9440 hc        1 MOL      0.020214
     36 H16        -1.2340   -8.6930   -3.8820 hx        1 MOL      0.091875
     37 H17        -0.7900   -7.1530   -4.7440 hx        1 MOL      0.091875
     38 H18        -3.0950   -7.8980   -5.2090 hn        1 MOL      0.256645
     39 H19        -3.3650   -7.9480   -3.6600 hn        1 MOL      0.256645
     40 H20        -3.1010   -6.5500   -4.3470 hn        1 MOL      0.256645
     41 N4          3.0760   -4.3840   -1.6010 n         1 MOL     -0.276882
     42 C13         4.2050   -3.8730   -2.4540 c3        1 MOL     -0.008260
     43 C14         5.3690   -3.3230   -1.6090 c         1 MOL      0.508445
     44 O6          6.4680   -3.2250   -2.1240 o         1 MOL     -0.575567
     45 C15         3.6140   -2.8400   -3.4310 c3        1 MOL     -0.255028
     46 C16         3.0330   -1.6620   -2.5780 c         1 MOL      0.542730
     47 O7          3.9020   -0.9210   -2.1060 o         1 MOL     -0.610068
     48 O8          1.8260   -1.4730   -2.4110 o         1 MOL     -0.610068
     49 H21         2.5070   -3.6100   -1.2730 hn        1 MOL      0.229935
     50 H22         4.7160   -4.6240   -3.0530 h1        1 MOL      0.118179
     51 H23         2.9180   -3.3970   -4.0620 hc        1 MOL      0.087642
     52 H24         4.3300   -2.4770   -4.1640 hc        1 MOL      0.087642
     53 N5          5.1250   -2.9920   -0.3280 n         1 MOL      0.032715
     54 C17         6.1490   -2.5820    0.6550 c3        1 MOL     -0.342749
     55 C18         6.8770   -1.2310    0.3480 c         1 MOL      0.495864
     56 O9          7.9700   -0.9440    0.9670 o         1 MOL     -0.558228
     57 H25         4.1700   -2.9990   -0.0010 hn        1 MOL     -0.040676
     58 H26         6.9650   -3.2900    0.5410 h1        1 MOL      0.156124
     59 H27         5.7740   -2.5950    1.6840 h1        1 MOL      0.156124
     60 N6          6.3490   -0.3530   -0.4980 n         1 MOL     -0.098768
     61 C19         6.9780    0.9620   -0.7900 c3        1 MOL     -0.040301
     62 C20         5.7850    2.0050   -0.7330 c         1 MOL      0.550104
     63 O10         4.6050    1.6530   -0.7840 o         1 MOL     -0.520438
     64 C21         7.7330    0.9330   -2.1430 c3        1 MOL     -0.262169
     65 C22         8.9680    0.0280   -2.1990 c         1 MOL      0.741133
     66 N7          8.8560   -1.2620   -2.5040 n         1 MOL     -0.868420
     67 O11        10.0880    0.4900   -2.1220 o         1 MOL     -0.582552
     68 H28         5.5690   -0.7100   -1.0320 hn        1 MOL      0.119090
     69 H29         7.6460    1.2380    0.0230 h1        1 MOL      0.068232
     70 H30         8.0380    1.9640   -2.2870 hc        1 MOL      0.067835
     71 H31         6.9740    0.7450   -2.9020 hc        1 MOL      0.067835
     72 H32         7.9670   -1.7320   -2.4850 hn        1 MOL      0.395745
     73 H33         9.7040   -1.8200   -2.5140 hn        1 MOL      0.395745
     74 N8          6.1090    3.2970   -0.6820 n         1 MOL     -0.366635
     75 C23         5.3890    4.5600   -0.7310 c3        1 MOL     -0.160311
     76 C24         4.2540    4.7380    0.2710 c         1 MOL      0.689594
     77 O12         4.3950    4.4900    1.4420 o         1 MOL     -0.514788
     78 H34         7.1010    3.4620   -0.7950 hn        1 MOL      0.313907
     79 H35         4.9890    4.7500   -1.7240 h1        1 MOL      0.083625
     80 H36         6.1020    5.3520   -0.5330 h1        1 MOL      0.083625
     81 N9          3.0770    5.0790   -0.2450 n         1 MOL     -0.613676
     82 C25         1.7970    5.2090    0.5070 c3        1 MOL      0.026087
     83 C26         1.2590    3.7870    0.8990 c         1 MOL      0.496893
     84 O13         1.8490    2.7700    0.4890 o         1 MOL     -0.556795
     85 C27         0.8590    5.9150   -0.3600 c3        1 MOL     -0.027214
     86 C28         1.2320    7.2990   -0.8400 ca        1 MOL      0.102030
     87 C29         0.7170    7.7580   -2.1260 ca        1 MOL     -0.240474
     88 C30         1.9520    8.2510   -0.0240 ca        1 MOL     -0.240474
     89 C31         1.1100    9.0150   -2.6390 ca        1 MOL     -0.172064
     90 C32         2.2060    9.5100   -0.4740 ca        1 MOL     -0.172064
     91 C33         1.8920    9.9230   -1.7670 ca        1 MOL      0.250277
     92 O14         2.1850   11.2200   -2.1720 oh        1 MOL     -0.465756
     93 H37         3.0700    5.1060   -1.2540 hn        1 MOL      0.308261
     94 H38         2.0320    5.7880    1.4040 h1        1 MOL      0.094756
     95 H39        -0.0600    5.9680    0.2250 hc        1 MOL      0.024113
     96 H40         0.5890    5.2680   -1.1880 hc        1 MOL      0.024113
     97 H41         0.0080    7.2110   -2.7270 ha        1 MOL      0.165031
     98 H42         2.3080    7.9760    0.9490 ha        1 MOL      0.165031
     99 H43         0.7120    9.4980   -3.5190 ha        1 MOL      0.142711
    100 H44         2.7900   10.2000    0.1180 ha        1 MOL      0.142711
    101 H45         2.6440   11.7400   -1.5090 ho        1 MOL      0.366652
    102 N10         0.4740    3.7590    1.8940 n         1 MOL     -0.478791
    103 C34         0.0830    2.6040    2.8070 c3        1 MOL      0.122899
    104 C35        -0.4670    1.2870    2.0970 c         1 MOL      0.359029
    105 O15         0.1960    0.7980    1.2080 o         1 MOL     -0.525752
    106 C36         1.2380    2.1730    3.8340 c3        1 MOL      0.416646
    107 C37         0.8060    1.1860    4.8880 c3        1 MOL     -0.486943
    108 C38         2.0650    3.3850    4.3380 c3        1 MOL     -0.073000
    109 C39        -0.3730    1.6920    5.7430 c3        1 MOL      0.014212
    110 H46        -0.0190    4.6050    2.1320 hn        1 MOL      0.305923
    111 H47        -0.7740    3.0020    3.3550 h1        1 MOL      0.013612
    112 H48         1.9630    1.6030    3.2410 hc        1 MOL     -0.044951
    113 H49         1.6350    0.9710    5.5750 hc        1 MOL      0.146488
    114 H50         0.5150    0.2550    4.4140 hc        1 MOL      0.146488
    115 H51         1.3000    4.0860    4.6680 hc        1 MOL      0.013717
    116 H52         2.6310    3.0610    5.2100 hc        1 MOL      0.013717
    117 H53         2.7230    3.8850    3.6170 hc        1 MOL      0.013717
    118 H54        -1.1980    2.1000    5.1670 hc        1 MOL     -0.000987
    119 H55        -0.8310    0.9010    6.3470 hc        1 MOL     -0.000987
    120 H56         0.0240    2.5140    6.3400 hc        1 MOL     -0.000987
    121 N11        -1.5120    0.7020    2.7360 n         1 MOL     -0.355985
    122 C40        -2.0070   -0.6630    2.4170 c3        1 MOL     -0.003993
    123 C41        -3.3940   -0.7040    1.6570 c         1 MOL      0.550450
    124 O16        -3.8020   -1.7560    1.0710 o         1 MOL     -0.556587
    125 C42        -2.0790   -1.4660    3.7200 c3        1 MOL      0.269942
    126 O17        -2.9430   -0.7670    4.5100 oh        1 MOL     -0.619419
    127 H57        -1.9200    1.2080    3.5070 hn        1 MOL      0.286751
    128 H58        -1.3790   -1.2770    1.7580 h1        1 MOL      0.088247
    129 H59        -1.1060   -1.6420    4.1790 h1        1 MOL     -0.001476
    130 H60        -2.4450   -2.4620    3.4750 h1        1 MOL     -0.001476
    131 H61        -2.6630   -1.0530    5.3880 ho        1 MOL      0.413414
    132 N12        -4.0340    0.4770    1.5180 n         1 MOL     -0.348033
    133 C43        -5.1050    0.6170    0.5770 c3        1 MOL     -0.050801
    134 C44        -4.6230    0.3020   -0.8620 c         1 MOL      0.772100
    135 O18        -3.4690    0.5910   -1.2510 o         1 MOL     -0.634449
    136 C45        -5.6470    2.0380    0.6800 c3        1 MOL     -0.287356
    137 H62        -3.5920    1.2400    1.9990 hn        1 MOL      0.239248
    138 H63        -5.8530   -0.0950    0.9250 h1        1 MOL      0.116905
    139 H64        -6.1540    2.1850    1.6430 hc        1 MOL      0.096365
    140 H65        -4.8020    2.7020    0.8140 hc        1 MOL      0.096365
    141 H66        -6.2770    2.2820   -0.1720 hc        1 MOL      0.096365
    142 N13        -5.4890   -0.2440   -1.7610 n         1 MOL     -0.752204
    143 C46        -6.8210   -0.6930   -1.5400 c3        1 MOL      0.407277
    144 C47        -7.9160    0.3750   -1.9930 c         1 MOL      0.431109
    145 O19        -7.6190    1.1660   -2.8660 o         1 MOL     -0.528312
    146 C48        -6.9870   -2.1200   -2.1490 c3        1 MOL     -0.170071
    147 H67        -5.1270   -0.3240   -2.6930 hn        1 MOL      0.367938
    148 H68        -7.0000   -0.9190   -0.4880 h1        1 MOL      0.003544
    149 H69        -6.7090   -2.2190   -3.1980 hc        1 MOL      0.036846
    150 H70        -6.4410   -2.8650   -1.5640 hc        1 MOL      0.036846
    151 H71        -8.0280   -2.3550   -1.9660 hc        1 MOL      0.036846
    152 N14        -9.1780    0.3280   -1.5310 n         1 MOL     -0.387982
    153 C49        -9.5900   -0.4710   -0.3600 c3        1 MOL     -0.291488
    154 C50        -9.8640    0.4400    0.8580 c         1 MOL      0.615804
    155 O20        -9.6860   -0.0200    1.9310 o         1 MOL     -0.556364
    156 C51       -10.8000   -1.2850   -0.7380 c3        1 MOL      0.317528
    157 C52       -12.0530   -0.5740   -1.0260 c3        1 MOL     -0.197187
    158 C53       -12.0690    0.5810   -2.1040 c         1 MOL      0.649308
    159 O21       -11.6090    1.7380   -1.8750 o         1 MOL     -0.639463
    160 O22       -12.5110    0.2450   -3.2390 o         1 MOL     -0.639463
    161 H72        -9.8940    0.9360   -1.8960 hn        1 MOL      0.284286
    162 H73        -8.8070   -1.1210    0.0320 h1        1 MOL      0.102535
    163 H74       -10.8570   -2.0530    0.0270 hc        1 MOL     -0.054354
    164 H75       -10.6040   -1.8280   -1.6580 hc        1 MOL     -0.054354
    165 H76       -12.3040   -0.2240   -0.0170 hc        1 MOL      0.014804
    166 H77       -12.8010   -1.3190   -1.2990 hc        1 MOL      0.014804
    167 N15       -10.2250    1.7300    0.6630 n         1 MOL     -0.417462
    168 C54       -10.6230    2.5370    1.8030 c3        1 MOL      0.053964
    169 H78       -10.4140    1.9930    2.7240 h1        1 MOL      0.026554
    170 H79       -10.0620    3.4730    1.8010 h1        1 MOL      0.026554
    171 H80       -11.6890    2.7520    1.7420 h1        1 MOL      0.026554
    172 H81       -10.6230    1.9030   -0.2460 hn        1 MOL      0.251919
    173 Ca1         2.2060    0.5810   -0.7850 Ca        1 MOL      1.729602
    174 O23         2.1150    2.0220   -3.0240 oh        1 MOL     -0.828856
    175 H82         1.4130    1.9220   -3.6760 ho        1 MOL      0.415227
    176 H83         2.5200    2.8610   -3.2310 ho        1 MOL      0.415227
    177 O24        -0.3030    0.7810   -2.1200 oh        1 MOL     -0.828856
    178 H84        -0.5470    1.6800   -1.8880 ho        1 MOL      0.415227
    179 H85        -1.1330    0.2970   -2.1010 ho        1 MOL      0.415227
@<TRIPOS>BOND
     1    1    2 1   
     2    1    4 1   
     3    1    5 1   
     4    1    6 1   
     5    2    3 2   
     6    2    7 1   
     7    7    8 1   
     8    7   15 1   
     9    8    9 1   
    10    8   11 1   
    11    8   16 1   
    12    9   10 2   
    13    9   19 1   
    14   11   12 1   
    15   11   17 1   
    16   11   18 1   
    17   12   13 1   
    18   12   14 1   
    19   19   20 1   
    20   19   28 1   
    21   20   21 1   
    22   20   23 1   
    23   20   29 1   
    24   21   22 2   
    25   21   41 1   
    26   23   24 1   
    27   23   30 1   
    28   23   31 1   
    29   24   25 1   
    30   24   32 1   
    31   24   33 1   
    32   25   26 1   
    33   25   34 1   
    34   25   35 1   
    35   26   27 1   
    36   26   36 1   
    37   26   37 1   
    38   27   38 1   
    39   27   39 1   
    40   27   40 1   
    41   41   42 1   
    42   41   49 1   
    43   42   43 1   
    44   42   45 1   
    45   42   50 1   
    46   43   44 2   
    47   43   53 1   
    48   45   46 1   
    49   45   51 1   
    50   45   52 1   
    51   46   47 1   
    52   46   48 1   
    53   53   54 1   
    54   53   57 1   
    55   54   55 1   
    56   54   58 1   
    57   54   59 1   
    58   55   56 2   
    59   55   60 1   
    60   60   61 1   
    61   60   68 1   
    62   61   62 1   
    63   61   64 1   
    64   61   69 1   
    65   62   63 2   
    66   62   74 1   
    67   64   65 1   
    68   64   70 1   
    69   64   71 1   
    70   65   66 1   
    71   65   67 2   
    72   66   72 1   
    73   66   73 1   
    74   74   75 1   
    75   74   78 1   
    76   75   76 1   
    77   75   79 1   
    78   75   80 1   
    79   76   77 2   
    80   76   81 1   
    81   81   82 1   
    82   81   93 1   
    83   82   83 1   
    84   82   85 1   
    85   82   94 1   
    86   83   84 2   
    87   83  102 1   
    88   85   86 1   
    89   85   95 1   
    90   85   96 1   
    91   86   87 ar  
    92   86   88 ar  
    93   87   89 ar  
    94   87   97 1   
    95   88   90 ar  
    96   88   98 1   
    97   89   91 ar  
    98   89   99 1   
    99   90   91 ar  
   100   90  100 1   
   101   91   92 1   
   102   92  101 1   
   103  102  103 1   
   104  102  110 1   
   105  103  104 1   
   106  103  106 1   
   107  103  111 1   
   108  104  105 2   
   109  104  121 1   
   110  106  107 1   
   111  106  108 1   
   112  106  112 1   
   113  107  109 1   
   114  107  113 1   
   115  107  114 1   
   116  108  115 1   
   117  108  116 1   
   118  108  117 1   
   119  109  118 1   
   120  109  119 1   
   121  109  120 1   
   122  121  122 1   
   123  121  127 1   
   124  122  123 1   
   125  122  125 1   
   126  122  128 1   
   127  123  124 2   
   128  123  132 1   
   129  125  126 1   
   130  125  129 1   
   131  125  130 1   
   132  126  131 1   
   133  132  133 1   
   134  132  137 1   
   135  133  134 1   
   136  133  136 1   
   137  133  138 1   
   138  134  135 2   
   139  134  142 1   
   140  136  139 1   
   141  136  140 1   
   142  136  141 1   
   143  142  143 1   
   144  142  147 1   
   145  143  144 1   
   146  143  146 1   
   147  143  148 1   
   148  144  145 2   
   149  144  152 1   
   150  146  149 1   
   151  146  150 1   
   152  146  151 1   
   153  152  153 1   
   154  152  161 1   
   155  153  154 1   
   156  153  156 1   
   157  153  162 1   
   158  154  155 2   
   159  154  167 1   
   160  156  157 1   
   161  156  163 1   
   162  156  164 1   
   163  157  158 1   
   164  157  165 1   
   165  157  166 1   
   166  158  159 1   
   167  158  160 1   
   168  167  168 1   
   169  167  172 1   
   170  168  169 1   
   171  168  170 1   
   172  168  171 1   
   173  174  175 1   
   174  174  176 1   
   175  177  178 1   
   176  177  179 1   
@<TRIPOS>SUBSTRUCTURE
     1 MOL         1 TEMP              0 ****  ****    0 ROOT
