@<TRIPOS>MOLECULE
MOL
  188   182     1     0     0
SMALL
resp


@<TRIPOS>ATOM
      1 C1         13.3010    4.8710    1.0050 c3        1 MOL     -0.393093
      2 C2         12.4740    3.5920    1.3170 c         1 MOL      0.736012
      3 O1         11.7450    3.5900    2.2950 o         1 MOL     -0.595690
      4 H1         13.9570    4.6800    0.1560 hc        1 MOL      0.098119
      5 H2         12.6260    5.6910    0.7640 hc        1 MOL      0.098119
      6 H3         13.9020    5.1360    1.8750 hc        1 MOL      0.098119
      7 N1         12.5910    2.4700    0.5860 n         1 MOL     -0.730096
      8 C3         11.8030    1.2430    0.8620 c3        1 MOL      0.549639
      9 C4         10.4330    1.3330    0.1460 c         1 MOL      0.361789
     10 O2         10.1550    2.2920   -0.6500 o         1 MOL     -0.556611
     11 C5         12.6550    0.0700    0.4540 c3        1 MOL     -0.323801
     12 C6         12.2110   -1.1490    1.1880 c         1 MOL      0.811266
     13 O3         11.2800   -1.1240    2.0190 o         1 MOL     -0.727248
     14 O4         12.9070   -2.1480    1.0110 o         1 MOL     -0.727248
     15 H4         13.1650    2.4840   -0.2350 hn        1 MOL      0.318103
     16 H5         11.6580    1.2290    1.9480 h1        1 MOL      0.003357
     17 H6         13.7090    0.2960    0.6470 hc        1 MOL      0.040301
     18 H7         12.4350   -0.0760   -0.6120 hc        1 MOL      0.040301
     19 N2          9.5400    0.3720    0.3540 n         1 MOL     -0.364614
     20 C7          8.1690    0.3230   -0.1650 c3        1 MOL      0.255032
     21 C8          7.0580   -0.0860    0.8110 c         1 MOL      0.433996
     22 O5          7.3340   -0.7240    1.8240 o         1 MOL     -0.460571
     23 C9          8.1300   -0.6450   -1.3930 c3        1 MOL     -0.131569
     24 C10         8.5730   -2.0790   -1.0190 c3        1 MOL      0.042301
     25 C11         8.4320   -3.0470   -2.1290 c3        1 MOL      0.134126
     26 C12         8.8380   -4.4860   -1.8770 c3        1 MOL      0.036790
     27 N3          8.6920   -5.3330   -3.0850 n4        1 MOL     -0.201589
     28 H8          9.9620   -0.3550    0.9210 hn        1 MOL      0.146573
     29 H9          8.0090    1.3500   -0.5040 h1        1 MOL      0.003402
     30 H10         8.6860   -0.1910   -2.2120 hc        1 MOL      0.019422
     31 H11         7.0620   -0.7380   -1.5950 hc        1 MOL      0.019422
     32 H12         7.9580   -2.4580   -0.2080 hc        1 MOL      0.022568
     33 H13         9.6160   -2.0700   -0.7040 hc        1 MOL      0.022568
     34 H14         8.9530   -2.7720   -3.0490 hc        1 MOL     -0.042704
     35 H15         7.3850   -3.0390   -2.4070 hc        1 MOL     -0.042704
     36 H16         8.0570   -4.8450   -1.2080 hx        1 MOL      0.064117
     37 H17         9.8090   -4.4440   -1.3930 hx        1 MOL      0.064117
     38 H18         8.7150   -6.3240   -2.9280 hn        1 MOL      0.266394
     39 H19         7.8550   -5.1270   -3.6110 hn        1 MOL      0.266394
     40 H20         9.4830   -5.1070   -3.6710 hn        1 MOL      0.266394
     41 N4          5.8790    0.3940    0.4510 n         1 MOL     -0.304672
     42 C13         4.6720    0.0780    1.2310 c3        1 MOL     -0.216662
     43 C14         4.3060   -1.4420    1.2290 c         1 MOL      0.422011
     44 O6          4.5560   -2.0900    0.1600 o         1 MOL     -0.400486
     45 C15         3.4860    0.9060    0.6890 c3        1 MOL     -0.137560
     46 C16         2.1050    0.6670    1.2960 c         1 MOL      0.819811
     47 O7          1.6090    1.5000    2.1060 o         1 MOL     -0.781167
     48 O8          1.4430   -0.3610    1.0310 o         1 MOL     -0.781167
     49 H21         5.8470    0.9580   -0.3810 hn        1 MOL      0.275957
     50 H22         4.9100    0.4640    2.2230 h1        1 MOL      0.143043
     51 H23         3.3850    0.7510   -0.3830 hc        1 MOL      0.056784
     52 H24         3.7770    1.9580    0.7160 hc        1 MOL      0.056784
     53 N5          3.7850   -2.0130    2.3300 n         1 MOL     -0.328340
     54 C17         3.4700   -3.4220    2.5820 c3        1 MOL     -0.084345
     55 C18         2.5350   -4.0830    1.6470 c         1 MOL      0.457604
     56 O9          2.7500   -5.2500    1.4210 o         1 MOL     -0.550337
     57 H25         3.6630   -1.3800    3.1100 hn        1 MOL      0.273007
     58 H26         3.0320   -3.4420    3.5780 h1        1 MOL      0.102907
     59 H27         4.4170   -3.9430    2.6810 h1        1 MOL      0.102907
     60 N6          1.7500   -3.3940    0.9020 n         1 MOL     -0.091286
     61 C19         0.8350   -3.8670   -0.1210 c3        1 MOL     -0.052625
     62 C20         0.9630   -2.9020   -1.3710 c         1 MOL      0.334039
     63 O10        -0.0250   -2.4410   -1.9720 o         1 MOL     -0.401509
     64 C21        -0.6140   -4.2890    0.4030 c3        1 MOL     -0.341367
     65 C22        -1.5230   -3.1170    0.8070 c         1 MOL      0.573785
     66 N7         -2.7390   -3.1130    0.3130 n         1 MOL     -0.647664
     67 O11        -1.0980   -2.1110    1.3130 o         1 MOL     -0.579552
     68 H28         1.6700   -2.3920    1.0720 hn        1 MOL      0.060243
     69 H29         1.2500   -4.7780   -0.5490 h1        1 MOL      0.121986
     70 H30        -0.5780   -5.0380    1.1890 hc        1 MOL      0.150783
     71 H31        -1.2010   -4.8670   -0.3150 hc        1 MOL      0.150783
     72 H32        -3.1040   -3.8790   -0.2270 hn        1 MOL      0.322379
     73 H33        -3.3080   -2.3140    0.5190 hn        1 MOL      0.322379
     74 N8          2.1310   -2.2690   -1.5890 n         1 MOL     -0.032897
     75 C23         2.5740   -1.5220   -2.7260 c3        1 MOL     -0.249331
     76 C24         1.9640   -0.0600   -2.8070 c         1 MOL      0.535900
     77 O12         2.2120    0.6060   -3.8220 o         1 MOL     -0.547534
     78 H34         2.9320   -2.5320   -1.0360 hn        1 MOL      0.115331
     79 H35         2.2660   -2.0440   -3.6330 h1        1 MOL      0.110936
     80 H36         3.6610   -1.4620   -2.6840 h1        1 MOL      0.110936
     81 N9          1.1610    0.3820   -1.8970 n         1 MOL     -0.367024
     82 C25         0.3790    1.5910   -2.0200 c3        1 MOL     -0.120943
     83 C26        -0.9110    1.5260   -1.2040 c         1 MOL      0.315270
     84 O13        -0.8800    1.0860   -0.0290 o         1 MOL     -0.539866
     85 C27         1.2060    2.8820   -1.7490 c3        1 MOL     -0.079568
     86 C28         0.3830    4.2210   -1.5470 ca        1 MOL     -0.066805
     87 C29        -0.1210    4.8890   -2.6930 ca        1 MOL     -0.106197
     88 C30         0.1240    4.7110   -0.2700 ca        1 MOL     -0.106197
     89 C31        -0.8360    6.1070   -2.5480 ca        1 MOL     -0.260830
     90 C32        -0.4570    5.9910   -0.1020 ca        1 MOL     -0.260830
     91 C33        -0.9020    6.6550   -1.2500 ca        1 MOL      0.377253
     92 O14        -1.4160    7.9030   -1.1000 oh        1 MOL     -0.488943
     93 H37         1.1330   -0.1190   -1.0270 hn        1 MOL      0.373770
     94 H38         0.0980    1.5600   -3.0720 h1        1 MOL      0.094639
     95 H39         1.9780    2.9600   -2.5140 hc        1 MOL      0.099772
     96 H40         1.8660    2.7830   -0.9010 hc        1 MOL      0.099772
     97 H41        -0.0760    4.3800   -3.6470 ha        1 MOL      0.115999
     98 H42         0.4310    4.0760    0.5490 ha        1 MOL      0.115999
     99 H43        -1.2260    6.6740   -3.3840 ha        1 MOL      0.154322
    100 H44        -0.4650    6.4000    0.8970 ha        1 MOL      0.154322
    101 H45        -1.4340    8.1880   -0.1830 ho        1 MOL      0.366460
    102 N10        -1.9870    1.8900   -1.8780 n         1 MOL      0.062595
    103 C34        -3.3650    1.8950   -1.3780 c3        1 MOL     -0.157481
    104 C35        -3.8430    0.4180   -1.6350 c         1 MOL      0.389774
    105 O15        -4.6060   -0.1120   -0.8030 o         1 MOL     -0.462371
    106 C36        -4.2270    2.9700   -2.1140 c3        1 MOL      0.011848
    107 C37        -3.7730    4.3570   -1.6760 c3        1 MOL      0.075094
    108 C38        -5.7100    2.7060   -1.9260 c3        1 MOL     -0.160519
    109 C39        -3.8310    4.7100   -0.1880 c3        1 MOL     -0.045307
    110 H46        -1.9300    2.1260   -2.8570 hn        1 MOL      0.184456
    111 H47        -3.4740    2.0080   -0.2930 h1        1 MOL      0.133630
    112 H48        -4.0460    2.9070   -3.1850 hc        1 MOL     -0.006606
    113 H49        -4.4160    5.0580   -2.2200 hc        1 MOL     -0.005800
    114 H50        -2.7490    4.5540   -1.9900 hc        1 MOL     -0.005800
    115 H51        -5.9690    1.8940   -2.6150 hc        1 MOL      0.069316
    116 H52        -5.8680    2.5340   -0.8610 hc        1 MOL      0.069316
    117 H53        -6.3420    3.5080   -2.3220 hc        1 MOL      0.069316
    118 H54        -3.3780    5.6950   -0.0370 hc        1 MOL     -0.004549
    119 H55        -4.8480    4.5430    0.1450 hc        1 MOL     -0.004549
    120 H56        -3.1390    4.0030    0.2750 hc        1 MOL     -0.004549
    121 N11        -3.3910   -0.2000   -2.7360 n         1 MOL     -0.200339
    122 C40        -3.5660   -1.5930   -2.9920 c3        1 MOL     -0.063699
    123 C41        -4.9490   -2.0970   -3.2600 c         1 MOL      0.284397
    124 O16        -5.2650   -3.2670   -2.9360 o         1 MOL     -0.461806
    125 C42        -2.6830   -1.9390   -4.1950 c3        1 MOL      0.051421
    126 O17        -1.3220   -1.4740   -3.9700 oh        1 MOL     -0.520508
    127 H57        -2.6320    0.2210   -3.2530 hn        1 MOL      0.188303
    128 H58        -3.1810   -2.1730   -2.1610 h1        1 MOL      0.123593
    129 H59        -2.9710   -1.4590   -5.1390 h1        1 MOL      0.082165
    130 H60        -2.6360   -3.0160   -4.3740 h1        1 MOL      0.082165
    131 H61        -0.9970   -1.8980   -3.1790 ho        1 MOL      0.312039
    132 N12        -5.7690   -1.2540   -3.8080 n         1 MOL     -0.199504
    133 C43        -7.2020   -1.2460   -3.9710 c3        1 MOL      0.260463
    134 C44        -7.9570   -1.8210   -2.7780 c         1 MOL      0.428803
    135 O18        -8.8680   -2.6450   -2.9610 o         1 MOL     -0.489692
    136 C45        -7.4410   -1.8660   -5.3680 c3        1 MOL     -0.390876
    137 H62        -5.3540   -0.4800   -4.3170 hn        1 MOL      0.181520
    138 H63        -7.5580   -0.2250   -4.0670 h1        1 MOL      0.031197
    139 H64        -6.9750   -1.3530   -6.2060 hc        1 MOL      0.105531
    140 H65        -7.2370   -2.9350   -5.4390 hc        1 MOL      0.105531
    141 H66        -8.5150   -1.7560   -5.5230 hc        1 MOL      0.105531
    142 N13        -7.5530   -1.3910   -1.5490 n         1 MOL     -0.452075
    143 C46        -8.2020   -1.7200   -0.2790 c3        1 MOL      0.575518
    144 C47        -8.4930   -0.5140    0.5890 c         1 MOL      0.209678
    145 O19        -7.8440    0.5170    0.5690 o         1 MOL     -0.454685
    146 C48        -7.3950   -2.7440    0.4800 c3        1 MOL     -0.253368
    147 H67        -6.8760   -0.6410   -1.5150 hn        1 MOL      0.075279
    148 H68        -9.1380   -2.1530   -0.6170 h1        1 MOL     -0.053579
    149 H69        -7.2970   -3.5370   -0.2720 hc        1 MOL      0.060212
    150 H70        -6.4700   -2.2950    0.8290 hc        1 MOL      0.060212
    151 H71        -7.9020   -3.0520    1.3900 hc        1 MOL      0.060212
    152 N14        -9.4400   -0.6600    1.4460 n         1 MOL     -0.217224
    153 C49        -9.9040    0.3520    2.4320 c3        1 MOL      0.005145
    154 C50       -10.1930    1.8220    1.8560 c         1 MOL      0.381035
    155 O20       -10.0360    2.8890    2.5360 o         1 MOL     -0.490253
    156 C51        -8.9830    0.3320    3.6490 c3        1 MOL     -0.302469
    157 C52        -8.7260   -1.0770    4.2990 c3        1 MOL      0.054549
    158 C53        -9.8660   -1.8990    4.6200 c         1 MOL      0.553744
    159 O21       -10.2910   -2.7140    3.7670 o         1 MOL     -0.645573
    160 O22       -10.5190   -1.6650    5.6860 o         1 MOL     -0.645573
    161 H72        -9.9320   -1.5330    1.4060 hn        1 MOL      0.190426
    162 H73       -10.8660   -0.0470    2.7430 h1        1 MOL      0.144844
    163 H74        -9.6610    0.8230    4.3500 hc        1 MOL      0.116234
    164 H75        -8.0320    0.7060    3.2770 hc        1 MOL      0.116234
    165 H76        -8.1550   -0.8260    5.1900 hc        1 MOL     -0.033538
    166 H77        -7.9920   -1.5960    3.6860 hc        1 MOL     -0.033538
    167 N15       -10.7640    1.9420    0.6190 n         1 MOL     -0.258609
    168 C54       -10.9560    3.1370   -0.2270 c3        1 MOL     -0.051153
    169 H78       -10.0270    3.3660   -0.7490 h1        1 MOL      0.063096
    170 H79       -11.7430    2.9450   -0.9550 h1        1 MOL      0.063096
    171 H80       -11.2380    3.9840    0.3990 h1        1 MOL      0.063096
    172 H81       -11.0860    1.0650    0.2320 hn        1 MOL      0.188485
    173 Ca1        -0.7490    0.3120    2.4070 Ca        1 MOL      1.775630
    174 O23        -3.4450   -0.1750    1.8060 oh        1 MOL     -0.827026
    175 H82        -3.9370   -0.3770    2.5960 ho        1 MOL      0.416262
    176 H83        -4.1050   -0.0460    1.1270 ho        1 MOL      0.416262
    177 O24        -1.6460    2.8450    2.4070 oh        1 MOL     -0.827026
    178 H84        -0.9750    3.4840    2.6170 ho        1 MOL      0.416262
    179 H85        -2.4010    3.0990    2.9330 ho        1 MOL      0.416262
    180 O25        -2.4210   -1.2310    4.3840 oh        1 MOL     -0.827026
    181 H86        -2.4250   -1.4490    5.3170 ho        1 MOL      0.416262
    182 H87        -2.3760   -2.0700    3.9380 ho        1 MOL      0.416262
    183 O26        -0.8020    1.3540    4.9150 oh        1 MOL     -0.827026
    184 H88        -1.6560    1.5320    5.3110 ho        1 MOL      0.416262
    185 H89        -0.1640    1.6820    5.5460 ho        1 MOL      0.416262
    186 O27         0.7060   -1.1730    3.8460 oh        1 MOL     -0.827026
    187 H90         0.5930   -2.0870    4.1070 ho        1 MOL      0.416262
    188 H91         1.5030   -0.8840    4.2910 ho        1 MOL      0.416262
@<TRIPOS>BOND
     1    1    2 1   
     2    1    4 1   
     3    1    5 1   
     4    1    6 1   
     5    2    3 2   
     6    2    7 1   
     7    7    8 1   
     8    7   15 1   
     9    8    9 1   
    10    8   11 1   
    11    8   16 1   
    12    9   10 2   
    13    9   19 1   
    14   11   12 1   
    15   11   17 1   
    16   11   18 1   
    17   12   13 1   
    18   12   14 1   
    19   19   20 1   
    20   19   28 1   
    21   20   21 1   
    22   20   23 1   
    23   20   29 1   
    24   21   22 2   
    25   21   41 1   
    26   23   24 1   
    27   23   30 1   
    28   23   31 1   
    29   24   25 1   
    30   24   32 1   
    31   24   33 1   
    32   25   26 1   
    33   25   34 1   
    34   25   35 1   
    35   26   27 1   
    36   26   36 1   
    37   26   37 1   
    38   27   38 1   
    39   27   39 1   
    40   27   40 1   
    41   41   42 1   
    42   41   49 1   
    43   42   43 1   
    44   42   45 1   
    45   42   50 1   
    46   43   44 2   
    47   43   53 1   
    48   45   46 1   
    49   45   51 1   
    50   45   52 1   
    51   46   47 1   
    52   46   48 1   
    53   53   54 1   
    54   53   57 1   
    55   54   55 1   
    56   54   58 1   
    57   54   59 1   
    58   55   56 2   
    59   55   60 1   
    60   60   61 1   
    61   60   68 1   
    62   61   62 1   
    63   61   64 1   
    64   61   69 1   
    65   62   63 2   
    66   62   74 1   
    67   64   65 1   
    68   64   70 1   
    69   64   71 1   
    70   65   66 1   
    71   65   67 2   
    72   66   72 1   
    73   66   73 1   
    74   74   75 1   
    75   74   78 1   
    76   75   76 1   
    77   75   79 1   
    78   75   80 1   
    79   76   77 2   
    80   76   81 1   
    81   81   82 1   
    82   81   93 1   
    83   82   83 1   
    84   82   85 1   
    85   82   94 1   
    86   83   84 2   
    87   83  102 1   
    88   85   86 1   
    89   85   95 1   
    90   85   96 1   
    91   86   87 ar  
    92   86   88 ar  
    93   87   89 ar  
    94   87   97 1   
    95   88   90 ar  
    96   88   98 1   
    97   89   91 ar  
    98   89   99 1   
    99   90   91 ar  
   100   90  100 1   
   101   91   92 1   
   102   92  101 1   
   103  102  103 1   
   104  102  110 1   
   105  103  104 1   
   106  103  106 1   
   107  103  111 1   
   108  104  105 2   
   109  104  121 1   
   110  106  107 1   
   111  106  108 1   
   112  106  112 1   
   113  107  109 1   
   114  107  113 1   
   115  107  114 1   
   116  108  115 1   
   117  108  116 1   
   118  108  117 1   
   119  109  118 1   
   120  109  119 1   
   121  109  120 1   
   122  121  122 1   
   123  121  127 1   
   124  122  123 1   
   125  122  125 1   
   126  122  128 1   
   127  123  124 2   
   128  123  132 1   
   129  125  126 1   
   130  125  129 1   
   131  125  130 1   
   132  126  131 1   
   133  132  133 1   
   134  132  137 1   
   135  133  134 1   
   136  133  136 1   
   137  133  138 1   
   138  134  135 2   
   139  134  142 1   
   140  136  139 1   
   141  136  140 1   
   142  136  141 1   
   143  142  143 1   
   144  142  147 1   
   145  143  144 1   
   146  143  146 1   
   147  143  148 1   
   148  144  145 2   
   149  144  152 1   
   150  146  149 1   
   151  146  150 1   
   152  146  151 1   
   153  152  153 1   
   154  152  161 1   
   155  153  154 1   
   156  153  156 1   
   157  153  162 1   
   158  154  155 2   
   159  154  167 1   
   160  156  157 1   
   161  156  163 1   
   162  156  164 1   
   163  157  158 1   
   164  157  165 1   
   165  157  166 1   
   166  158  159 1   
   167  158  160 1   
   168  167  168 1   
   169  167  172 1   
   170  168  169 1   
   171  168  170 1   
   172  168  171 1   
   173  174  175 1   
   174  174  176 1   
   175  177  178 1   
   176  177  179 1   
   177  180  181 1   
   178  180  182 1   
   179  183  184 1   
   180  183  185 1   
   181  186  187 1   
   182  186  188 1   
@<TRIPOS>SUBSTRUCTURE
     1 MOL         1 TEMP              0 ****  ****    0 ROOT
