@<TRIPOS>MOLECULE
MOL
  189   185     1     0     0
SMALL
resp


@<TRIPOS>ATOM
      1 C1          4.3920    4.3430   -3.5900 c3        1 MOL     -0.400839
      2 C2          5.1000    3.4870   -2.4850 c         1 MOL      0.701765
      3 O1          4.4540    3.1090   -1.5170 o         1 MOL     -0.510251
      4 H1          3.8660    3.6830   -4.2790 hc        1 MOL      0.099952
      5 H2          3.6790    5.0210   -3.1220 hc        1 MOL      0.099952
      6 H3          5.1380    4.9190   -4.1370 hc        1 MOL      0.099952
      7 N1          6.3600    3.0890   -2.6680 n         1 MOL     -0.624316
      8 C3          6.9140    1.9550   -1.9500 c3        1 MOL      0.180753
      9 C4          5.9770    0.7660   -1.8190 c         1 MOL      0.364950
     10 O2          5.4050    0.4160   -0.7530 o         1 MOL     -0.564860
     11 C5          7.5810    2.3570   -0.6400 c3        1 MOL     -0.006998
     12 C6          7.1190    3.5610    0.1820 c         1 MOL      0.649972
     13 O3          6.1300    3.3190    0.9320 o         1 MOL     -0.701905
     14 O4          7.7570    4.6230    0.2070 o         1 MOL     -0.701905
     15 H4          6.7540    3.3580   -3.5560 hn        1 MOL      0.309503
     16 H5          7.7670    1.6120   -2.5370 h1        1 MOL      0.061717
     17 H6          8.6350    2.5450   -0.8650 hc        1 MOL      0.000582
     18 H7          7.6880    1.4540   -0.0470 hc        1 MOL      0.000582
     19 N2          5.5750    0.1100   -2.9420 n         1 MOL     -0.479966
     20 C7          4.7020   -1.1020   -3.0650 c3        1 MOL      0.165484
     21 C8          5.1990   -2.3640   -2.4280 c         1 MOL      0.267445
     22 O5          5.3600   -3.3810   -3.1100 o         1 MOL     -0.519445
     23 C9          3.2330   -0.8970   -2.8040 c3        1 MOL      0.283363
     24 C10         2.3030   -2.0460   -3.3150 c3        1 MOL     -0.161906
     25 C11         2.7620    0.4920   -3.3680 c3        1 MOL     -0.121706
     26 C12         2.2750   -2.4150   -4.8370 c3        1 MOL     -0.166368
     27 H8          5.8400    0.5310   -3.8330 hn        1 MOL      0.264703
     28 H9          4.7150   -1.3180   -4.1280 h1        1 MOL      0.028507
     29 H10         3.0340   -0.8220   -1.7370 hc        1 MOL     -0.111537
     30 H11         1.2490   -1.8710   -3.1090 hc        1 MOL      0.115932
     31 H12         2.5840   -3.0290   -2.9470 hc        1 MOL      0.115932
     32 H13         3.0720    0.5500   -4.4070 hc        1 MOL      0.010686
     33 H14         1.6740    0.5410   -3.3130 hc        1 MOL      0.010686
     34 H15         3.1100    1.3040   -2.7260 hc        1 MOL      0.010686
     35 H16         1.5760   -3.2520   -4.8710 hc        1 MOL      0.021592
     36 H17         2.0980   -1.6590   -5.5980 hc        1 MOL      0.021592
     37 H18         3.2470   -2.8680   -5.0710 hc        1 MOL      0.021592
     38 N3          5.5950   -2.3000   -1.1300 n         1 MOL     -0.033588
     39 C13         6.2910   -3.3420   -0.3290 c3        1 MOL      0.127677
     40 C14         5.5840   -4.7100   -0.3200 c         1 MOL      0.410685
     41 O6          6.1130   -5.7860   -0.7340 o         1 MOL     -0.584115
     42 C15         6.6890   -2.8500    1.0670 c3        1 MOL     -0.307636
     43 C16         7.7370   -1.7100    0.9590 c         1 MOL      0.788289
     44 O7          8.3180   -1.4070   -0.0810 o         1 MOL     -0.717106
     45 O8          7.9420   -1.0750    1.9730 o         1 MOL     -0.717106
     46 H19         5.5130   -1.3460   -0.8180 hn        1 MOL      0.195312
     47 H20         7.2340   -3.4180   -0.8670 h1        1 MOL      0.010790
     48 H21         7.1310   -3.6270    1.6970 hc        1 MOL      0.086499
     49 H22         5.7910   -2.4900    1.5540 hc        1 MOL      0.086499
     50 N4          4.3120   -4.8110   -0.0420 n         1 MOL     -0.378259
     51 C17         3.4250   -3.7240    0.4070 c3        1 MOL      0.166467
     52 C18         2.3160   -4.2510    1.3390 c         1 MOL      0.430211
     53 O9          1.9110   -5.3900    1.1710 o         1 MOL     -0.591262
     54 H23         3.9290   -5.7420   -0.0470 hn        1 MOL      0.267144
     55 H24         2.9830   -3.1520   -0.4060 h1        1 MOL     -0.002865
     56 H25         4.0530   -3.0430    0.9960 h1        1 MOL     -0.002865
     57 N5          1.6050   -3.5550    2.2250 n         1 MOL     -0.384060
     58 C19         1.8260   -2.2320    2.7300 c3        1 MOL      0.654459
     59 C20         1.9990   -1.1370    1.7290 c         1 MOL      0.067828
     60 O10         3.0840   -0.6230    1.5400 o         1 MOL     -0.405375
     61 C21         2.9510   -2.2890    3.7610 c3        1 MOL     -0.423424
     62 C22         3.0620   -1.0420    4.6400 c         1 MOL      0.785175
     63 O11         2.1020   -0.3130    4.8360 o         1 MOL     -0.699001
     64 O12         4.1740   -0.7790    5.0960 o         1 MOL     -0.699001
     65 H26         0.9340   -4.1520    2.6960 hn        1 MOL      0.185759
     66 H27         0.9500   -1.9490    3.3050 h1        1 MOL     -0.070424
     67 H28         3.9240   -2.5780    3.3600 hc        1 MOL      0.050651
     68 H29         2.5800   -3.0280    4.4640 hc        1 MOL      0.050651
     69 N6          0.9330   -0.6750    1.0450 n         1 MOL     -0.123137
     70 C23        -0.4230   -1.1780    1.1240 c3        1 MOL     -0.152316
     71 C24        -0.7550   -2.2820    0.1590 c         1 MOL      0.439810
     72 O13        -0.1900   -2.3780   -0.9490 o         1 MOL     -0.551016
     73 H30         1.1730    0.0270    0.3560 hn        1 MOL      0.167461
     74 H31        -1.0540   -0.3280    0.8590 h1        1 MOL      0.092337
     75 H32        -0.8090   -1.5890    2.0520 h1        1 MOL      0.092337
     76 N7         -1.6630   -3.1700    0.5600 n         1 MOL     -0.081979
     77 C25        -2.1300   -4.4250   -0.1220 c3        1 MOL     -0.258595
     78 C26        -2.8550   -4.2270   -1.5100 c         1 MOL      0.408410
     79 O14        -2.8850   -5.2380   -2.2850 o         1 MOL     -0.512772
     80 C27        -2.9570   -5.3350    0.8260 c3        1 MOL      0.326300
     81 C28        -2.0970   -5.8230    2.0030 c3        1 MOL     -0.466023
     82 C29        -1.9120   -4.7130    3.1310 c         1 MOL      0.592224
     83 N8         -1.2240   -5.1230    4.1640 n         1 MOL     -0.727888
     84 O15        -2.3660   -3.5730    3.2260 o         1 MOL     -0.469226
     85 H33        -2.0690   -2.9860    1.4610 hn        1 MOL      0.080398
     86 H34        -1.1990   -4.9600   -0.3070 h1        1 MOL      0.174145
     87 H35        -3.3710   -6.2330    0.3600 hc        1 MOL     -0.020649
     88 H36        -3.8350   -4.8120    1.2110 hc        1 MOL     -0.020649
     89 H37        -1.1250   -6.1970    1.6740 hc        1 MOL      0.136972
     90 H38        -2.5490   -6.7320    2.4000 hc        1 MOL      0.136972
     91 H39        -0.8680   -6.0600    4.0700 hn        1 MOL      0.362710
     92 H40        -0.9740   -4.5010    4.9160 hn        1 MOL      0.362710
     93 N9         -3.3400   -3.0110   -1.8590 n         1 MOL     -0.256059
     94 C30        -3.8530   -2.7320   -3.2180 c3        1 MOL     -0.067737
     95 C31        -5.2300   -2.0230   -3.2690 c         1 MOL      0.618933
     96 O16        -5.9210   -2.1290   -4.2700 o         1 MOL     -0.564900
     97 C32        -2.8840   -1.9460   -4.0050 c3        1 MOL      0.150297
     98 C33        -1.5900   -2.6900   -4.5200 c3        1 MOL     -0.274859
     99 C34        -2.2830   -0.6110   -3.4250 c3        1 MOL     -0.274859
    100 H41        -3.3360   -2.2630   -1.1870 hn        1 MOL      0.198187
    101 H42        -3.9710   -3.7270   -3.6480 h1        1 MOL      0.115699
    102 H43        -3.4410   -1.7190   -4.9150 hc        1 MOL     -0.016573
    103 H44        -1.1950   -3.1910   -3.6410 hc        1 MOL      0.077699
    104 H45        -1.9050   -3.4940   -5.1740 hc        1 MOL      0.077699
    105 H46        -0.8120   -2.0730   -4.9860 hc        1 MOL      0.077699
    106 H47        -1.8890   -0.0630   -4.2740 hc        1 MOL      0.077699
    107 H48        -2.9860    0.0680   -2.9380 hc        1 MOL      0.077699
    108 H49        -1.4550   -0.9020   -2.7690 hc        1 MOL      0.077699
    109 N10        -5.7230   -1.3830   -2.1860 n         1 MOL     -0.522001
    110 C35        -7.1530   -0.8400   -2.0720 c3        1 MOL      0.175823
    111 C36        -7.2380    0.4710   -1.3750 c         1 MOL      0.577856
    112 O17        -8.2840    1.0910   -1.5090 o         1 MOL     -0.549477
    113 C37        -8.1170   -1.8060   -1.4240 c3        1 MOL     -0.353514
    114 C38        -8.1820   -3.1990   -1.8420 c         1 MOL      0.730742
    115 N11        -8.3520   -3.4450   -3.1280 n         1 MOL     -0.826473
    116 O18        -8.0770   -4.1420   -1.0960 o         1 MOL     -0.575283
    117 H50        -5.0790   -1.1140   -1.4590 hn        1 MOL      0.267178
    118 H51        -7.5000   -0.6020   -3.0790 h1        1 MOL      0.044861
    119 H52        -9.1100   -1.3440   -1.4450 hc        1 MOL      0.094245
    120 H53        -7.8390   -1.7570   -0.3730 hc        1 MOL      0.094245
    121 H54        -8.3110   -2.6590   -3.7640 hn        1 MOL      0.377355
    122 H55        -8.5160   -4.3950   -3.4290 hn        1 MOL      0.377355
    123 N12        -6.2560    0.9720   -0.5840 n         1 MOL     -0.566032
    124 C39        -6.2190    2.3180    0.0500 c3        1 MOL      0.206439
    125 C40        -4.8640    2.9110    0.3310 c         1 MOL      0.408360
    126 O19        -3.8260    2.1920    0.3520 o         1 MOL     -0.479412
    127 C41        -7.1520    2.2580    1.3240 c3        1 MOL     -0.227776
    128 C42        -6.8350    1.1000    2.2850 ca        1 MOL      0.011069
    129 C43        -7.6400   -0.0770    2.1610 ca        1 MOL     -0.146033
    130 C44        -5.7370    1.1220    3.1080 ca        1 MOL     -0.146033
    131 C45        -7.2930   -1.2290    2.8470 ca        1 MOL     -0.220702
    132 C46        -5.4010   -0.0130    3.9020 ca        1 MOL     -0.220702
    133 C47        -6.2030   -1.1440    3.7370 ca        1 MOL      0.315980
    134 O20        -5.9940   -2.1940    4.6370 oh        1 MOL     -0.563904
    135 H56        -5.4830    0.3880   -0.3180 hn        1 MOL      0.330163
    136 H57        -6.6940    2.9790   -0.6880 h1        1 MOL      0.057973
    137 H58        -8.1440    2.0800    0.9220 hc        1 MOL      0.086488
    138 H59        -7.2190    3.2490    1.7740 hc        1 MOL      0.086488
    139 H60        -8.5240   -0.1690    1.5490 ha        1 MOL      0.144000
    140 H61        -5.1470    2.0200    3.1340 ha        1 MOL      0.144000
    141 H62        -7.9090   -2.1100    2.7710 ha        1 MOL      0.151861
    142 H63        -4.5910    0.0810    4.6170 ha        1 MOL      0.151861
    143 H64        -5.1450   -2.0570    5.0450 ho        1 MOL      0.411431
    144 N13        -4.8260    4.2500    0.5740 n         1 MOL     -0.665775
    145 C48        -3.7430    5.0450    1.2040 c3        1 MOL      0.542266
    146 C49        -2.5520    5.3420    0.2830 c         1 MOL      0.045623
    147 O21        -1.8060    6.2770    0.5170 o         1 MOL     -0.423365
    148 C50        -3.2970    4.2840    2.5090 c3        1 MOL     -0.405680
    149 C51        -2.2400    5.1090    3.1960 c3        1 MOL     -0.565575
    150 C52        -1.7960    4.5740    4.5860 c         1 MOL      0.864199
    151 O22        -2.4940    4.9760    5.5880 o         1 MOL     -0.768231
    152 O23        -0.6940    4.0250    4.7700 o         1 MOL     -0.768231
    153 H65        -5.7720    4.6050    0.5840 hn        1 MOL      0.287241
    154 H66        -4.0770    6.0240    1.5500 h1        1 MOL      0.003440
    155 H67        -2.8200    3.3210    2.3120 hc        1 MOL      0.177173
    156 H68        -4.1570    4.1000    3.1610 hc        1 MOL      0.177173
    157 H69        -2.4850    6.1700    3.2460 hc        1 MOL      0.181692
    158 H70        -1.3880    5.0210    2.5120 hc        1 MOL      0.181692
    159 N14        -2.3000    4.4200   -0.6800 n         1 MOL     -0.198662
    160 C53        -1.2260    4.5030   -1.7060 c3        1 MOL     -0.197500
    161 C54        -1.6590    5.3320   -2.9770 c         1 MOL      0.460347
    162 O24        -0.8880    5.3960   -3.9100 o         1 MOL     -0.522121
    163 C55        -0.9010    3.0710   -2.0870 c3        1 MOL      0.013044
    164 C56        -0.3380    2.1170   -0.9820 c3        1 MOL      0.287736
    165 C57         0.8950    2.6380   -0.2350 c         1 MOL      0.620721
    166 O25         1.9250    1.9720   -0.2320 o         1 MOL     -0.625780
    167 O26         0.7650    3.5800    0.5710 o         1 MOL     -0.625780
    168 H71        -2.8090    3.5600   -0.7780 hn        1 MOL      0.249057
    169 H72        -0.3520    4.9810   -1.2750 h1        1 MOL      0.230625
    170 H73        -0.0650    3.0900   -2.7940 hc        1 MOL     -0.030022
    171 H74        -1.7380    2.5670   -2.5680 hc        1 MOL     -0.030022
    172 H75         0.0170    1.1760   -1.4020 hc        1 MOL     -0.084058
    173 H76        -1.1970    1.8910   -0.3460 hc        1 MOL     -0.084058
    174 N15        -2.8910    5.8540   -3.0900 n         1 MOL     -0.178010
    175 C58        -3.4580    6.5630   -4.1970 c3        1 MOL     -0.121237
    176 H77        -3.9910    5.8630   -4.8410 h1        1 MOL      0.059177
    177 H78        -4.1530    7.3170   -3.8290 h1        1 MOL      0.059177
    178 H79        -2.6630    7.0450   -4.7660 h1        1 MOL      0.059177
    179 H80        -3.5610    5.5180   -2.4170 hn        1 MOL      0.195789
    180 Ca1         4.1400    1.7680    0.9870 Ca        1 MOL      1.701083
    181 O27         3.0040    4.1640    1.7640 oh        1 MOL     -0.927546
    182 H81         2.8580    4.1420    2.7060 ho        1 MOL      0.427522
    183 H82         2.1430    3.9770    1.3880 ho        1 MOL      0.427522
    184 O28         5.9410    0.5420    2.5340 oh        1 MOL     -0.927546
    185 H83         6.7750    0.0880    2.4280 ho        1 MOL      0.427522
    186 H84         5.8600    0.6720    3.4820 ho        1 MOL      0.427522
    187 O29         2.8550    1.7630    3.4620 oh        1 MOL     -0.927546
    188 H85         2.4320    1.1450    4.0570 ho        1 MOL      0.427522
    189 H86         2.5970    2.6170    3.7820 ho        1 MOL      0.427522
@<TRIPOS>BOND
     1    1    2 1   
     2    1    4 1   
     3    1    5 1   
     4    1    6 1   
     5    2    3 2   
     6    2    7 1   
     7    7    8 1   
     8    7   15 1   
     9    8    9 1   
    10    8   11 1   
    11    8   16 1   
    12    9   10 2   
    13    9   19 1   
    14   11   12 1   
    15   11   17 1   
    16   11   18 1   
    17   12   13 1   
    18   12   14 1   
    19   19   20 1   
    20   19   27 1   
    21   20   21 1   
    22   20   23 1   
    23   20   28 1   
    24   21   22 2   
    25   21   38 1   
    26   23   24 1   
    27   23   25 1   
    28   23   29 1   
    29   24   26 1   
    30   24   30 1   
    31   24   31 1   
    32   25   32 1   
    33   25   33 1   
    34   25   34 1   
    35   26   35 1   
    36   26   36 1   
    37   26   37 1   
    38   38   39 1   
    39   38   46 1   
    40   39   40 1   
    41   39   42 1   
    42   39   47 1   
    43   40   41 2   
    44   40   50 1   
    45   42   43 1   
    46   42   48 1   
    47   42   49 1   
    48   43   44 1   
    49   43   45 1   
    50   50   51 1   
    51   50   54 1   
    52   51   52 1   
    53   51   55 1   
    54   51   56 1   
    55   52   53 2   
    56   52   57 1   
    57   57   58 1   
    58   57   65 1   
    59   58   59 1   
    60   58   61 1   
    61   58   66 1   
    62   59   60 2   
    63   59   69 1   
    64   61   62 1   
    65   61   67 1   
    66   61   68 1   
    67   62   63 1   
    68   62   64 1   
    69   69   70 1   
    70   69   73 1   
    71   70   71 1   
    72   70   74 1   
    73   70   75 1   
    74   71   72 2   
    75   71   76 1   
    76   76   77 1   
    77   76   85 1   
    78   77   78 1   
    79   77   80 1   
    80   77   86 1   
    81   78   79 2   
    82   78   93 1   
    83   80   81 1   
    84   80   87 1   
    85   80   88 1   
    86   81   82 1   
    87   81   89 1   
    88   81   90 1   
    89   82   83 1   
    90   82   84 2   
    91   83   91 1   
    92   83   92 1   
    93   93   94 1   
    94   93  100 1   
    95   94   95 1   
    96   94   97 1   
    97   94  101 1   
    98   95   96 2   
    99   95  109 1   
   100   97   98 1   
   101   97   99 1   
   102   97  102 1   
   103   98  103 1   
   104   98  104 1   
   105   98  105 1   
   106   99  106 1   
   107   99  107 1   
   108   99  108 1   
   109  109  110 1   
   110  109  117 1   
   111  110  111 1   
   112  110  113 1   
   113  110  118 1   
   114  111  112 2   
   115  111  123 1   
   116  113  114 1   
   117  113  119 1   
   118  113  120 1   
   119  114  115 1   
   120  114  116 2   
   121  115  121 1   
   122  115  122 1   
   123  123  124 1   
   124  123  135 1   
   125  124  125 1   
   126  124  127 1   
   127  124  136 1   
   128  125  126 2   
   129  125  144 1   
   130  127  128 1   
   131  127  137 1   
   132  127  138 1   
   133  128  129 ar  
   134  128  130 ar  
   135  129  131 ar  
   136  129  139 1   
   137  130  132 ar  
   138  130  140 1   
   139  131  133 ar  
   140  131  141 1   
   141  132  133 ar  
   142  132  142 1   
   143  133  134 1   
   144  134  143 1   
   145  144  145 1   
   146  144  153 1   
   147  145  146 1   
   148  145  148 1   
   149  145  154 1   
   150  146  147 2   
   151  146  159 1   
   152  148  149 1   
   153  148  155 1   
   154  148  156 1   
   155  149  150 1   
   156  149  157 1   
   157  149  158 1   
   158  150  151 1   
   159  150  152 1   
   160  159  160 1   
   161  159  168 1   
   162  160  161 1   
   163  160  163 1   
   164  160  169 1   
   165  161  162 2   
   166  161  174 1   
   167  163  164 1   
   168  163  170 1   
   169  163  171 1   
   170  164  165 1   
   171  164  172 1   
   172  164  173 1   
   173  165  166 1   
   174  165  167 1   
   175  174  175 1   
   176  174  179 1   
   177  175  176 1   
   178  175  177 1   
   179  175  178 1   
   180  181  182 1   
   181  181  183 1   
   182  184  185 1   
   183  184  186 1   
   184  187  188 1   
   185  187  189 1   
@<TRIPOS>SUBSTRUCTURE
     1 MOL         1 TEMP              0 ****  ****    0 ROOT
