@<TRIPOS>MOLECULE
MOL
  185   180     1     0     0
SMALL
resp


@<TRIPOS>ATOM
      1 C1         -5.6780    1.4330   -3.3990 c3        1 MOL     -0.389547
      2 C2         -6.4140    1.8130   -2.1050 c         1 MOL      0.600472
      3 O1         -5.7990    1.7850   -1.0090 o         1 MOL     -0.460766
      4 H1         -5.5820    0.3480   -3.4580 hc        1 MOL      0.097954
      5 H2         -6.2440    1.7940   -4.2590 hc        1 MOL      0.097954
      6 H3         -4.6860    1.8850   -3.4010 hc        1 MOL      0.097954
      7 N1         -7.7010    2.0120   -2.1820 n         1 MOL     -0.446346
      8 C3         -8.5340    1.9180   -0.9750 c3        1 MOL      0.016855
      9 C4         -8.5170    0.6200   -0.1490 c         1 MOL      0.543142
     10 O2         -9.1100    0.5810    0.9390 o         1 MOL     -0.515649
     11 C5         -8.3360    3.2490   -0.0950 c3        1 MOL     -0.306446
     12 C6         -8.4520    4.6350   -0.8520 c         1 MOL      0.769058
     13 O3         -7.7310    5.6020   -0.5610 o         1 MOL     -0.672506
     14 O4         -9.3180    4.7650   -1.7410 o         1 MOL     -0.672506
     15 H4         -8.1730    2.0130   -3.0770 hn        1 MOL      0.309624
     16 H5         -9.5540    1.9790   -1.3580 h1        1 MOL      0.078249
     17 H6         -7.3790    3.1030    0.4110 hc        1 MOL      0.083581
     18 H7         -9.1290    3.3210    0.6470 hc        1 MOL      0.083581
     19 N2         -8.0710   -0.4850   -0.7360 n         1 MOL     -0.390930
     20 C7         -7.9780   -1.7120    0.0090 c3        1 MOL      0.041736
     21 C8         -6.5600   -2.3730    0.1180 c         1 MOL      0.629278
     22 O5         -6.3740   -3.5520    0.1720 o         1 MOL     -0.593550
     23 C9         -9.1220   -2.6720   -0.4150 c3        1 MOL     -0.110084
     24 C10        -9.0860   -3.0170   -1.9170 c3        1 MOL      0.101988
     25 C11       -10.0420   -4.0680   -2.2530 c3        1 MOL     -0.185671
     26 C12        -9.7770   -5.4580   -1.5260 c3        1 MOL      0.137086
     27 N3        -10.7960   -6.4610   -2.0320 n4        1 MOL     -0.299967
     28 H8         -7.8040   -0.4830   -1.7140 hn        1 MOL      0.185667
     29 H9         -8.2240   -1.4930    1.0450 h1        1 MOL      0.093400
     30 H10       -10.0910   -2.2370   -0.1810 hc        1 MOL      0.051958
     31 H11        -8.9810   -3.5380    0.2420 hc        1 MOL      0.051958
     32 H12        -8.0950   -3.3150   -2.2470 hc        1 MOL      0.022017
     33 H13        -9.3720   -2.1000   -2.4240 hc        1 MOL      0.022017
     34 H14        -9.8330   -4.4030   -3.2700 hc        1 MOL      0.052231
     35 H15       -11.0870   -3.7840   -2.1120 hc        1 MOL      0.052231
     36 H16        -9.8260   -5.3630   -0.4480 hx        1 MOL      0.058368
     37 H17        -8.7610   -5.8000   -1.7100 hx        1 MOL      0.058368
     38 H18       -10.7990   -7.3100   -1.4900 hn        1 MOL      0.279077
     39 H19       -11.6860   -5.9870   -1.9930 hn        1 MOL      0.279077
     40 H20       -10.7060   -6.6230   -3.0290 hn        1 MOL      0.279077
     41 N4         -5.4870   -1.5500    0.0050 n         1 MOL     -0.441335
     42 C13        -4.0980   -1.9850    0.0700 c3        1 MOL     -0.024148
     43 C14        -3.8360   -2.4240    1.5190 c         1 MOL      0.631052
     44 O6         -4.3450   -1.8490    2.4900 o         1 MOL     -0.489417
     45 C15        -3.2230   -0.7810   -0.3380 c3        1 MOL     -0.088430
     46 C16        -1.7420   -1.2220   -0.1970 c         1 MOL      0.417791
     47 O7         -1.1740   -1.1500    0.9110 o         1 MOL     -0.609648
     48 O8         -1.2370   -1.7720   -1.1830 o         1 MOL     -0.609648
     49 H21        -5.6920   -0.5820   -0.1930 hn        1 MOL      0.205599
     50 H22        -3.8420   -2.8420   -0.5480 h1        1 MOL      0.062792
     51 H23        -3.4360    0.0370    0.3560 hc        1 MOL      0.111553
     52 H24        -3.4300   -0.4270   -1.3440 hc        1 MOL      0.111553
     53 N5         -3.0540   -3.5510    1.6400 n         1 MOL     -0.399665
     54 C17        -2.8010   -4.0920    2.9800 c3        1 MOL     -0.230331
     55 C18        -2.0990   -3.1940    3.8960 c         1 MOL      0.629533
     56 O9         -2.4020   -3.3480    5.0970 o         1 MOL     -0.569845
     57 H25        -2.5610   -3.9350    0.8470 hn        1 MOL      0.265251
     58 H26        -2.2790   -5.0490    2.9480 h1        1 MOL      0.129419
     59 H27        -3.7730   -4.1760    3.4660 h1        1 MOL      0.129419
     60 N6         -1.1210   -2.3100    3.5240 n         1 MOL     -0.462938
     61 C19        -0.7220   -1.2030    4.4140 c3        1 MOL      0.095795
     62 C20        -1.3160    0.1580    4.1040 c         1 MOL      0.481772
     63 O10        -0.9340    1.1190    4.7440 o         1 MOL     -0.550306
     64 C21         0.8500   -1.1130    4.4950 c3        1 MOL     -0.319733
     65 C22         1.5690   -0.5540    3.2820 c         1 MOL      0.695672
     66 N7          1.8460    0.7550    3.2680 n         1 MOL     -0.772470
     67 O11         1.7570   -1.2310    2.2500 o         1 MOL     -0.605006
     68 H28        -0.8090   -2.2210    2.5640 hn        1 MOL      0.313805
     69 H29        -1.1780   -1.3100    5.4040 h1        1 MOL      0.122511
     70 H30         1.2630   -2.0930    4.7570 hc        1 MOL      0.100232
     71 H31         1.0090   -0.4530    5.3430 hc        1 MOL      0.100232
     72 H32         1.7150    1.2680    4.1260 hn        1 MOL      0.368304
     73 H33         2.1880    1.3090    2.4970 hn        1 MOL      0.368304
     74 N8         -2.1760    0.3410    3.0610 n         1 MOL     -0.111654
     75 C23        -2.7620    1.6880    2.7850 c3        1 MOL     -0.262273
     76 C24        -1.7530    2.6540    2.0620 c         1 MOL      0.604763
     77 O12        -1.6880    3.8600    2.3350 o         1 MOL     -0.528607
     78 H34        -2.4640   -0.4590    2.5280 hn        1 MOL      0.032933
     79 H35        -3.0270    2.1910    3.7150 h1        1 MOL      0.141653
     80 H36        -3.6320    1.5440    2.1440 h1        1 MOL      0.141653
     81 N9         -0.9620    2.0670    1.1100 n         1 MOL     -0.518911
     82 C25        -0.0850    2.7150    0.0700 c3        1 MOL      0.568817
     83 C26         1.1710    1.8730   -0.2250 c         1 MOL      0.018025
     84 O13         1.1600    0.7140   -0.0900 o         1 MOL     -0.206354
     85 C27        -0.7890    3.0010   -1.2140 c3        1 MOL     -0.106579
     86 C28        -1.8830    4.0560   -1.1460 ca        1 MOL     -0.052497
     87 C29        -3.1070    3.6340   -0.6760 ca        1 MOL     -0.139883
     88 C30        -1.7240    5.4280   -1.4890 ca        1 MOL     -0.139883
     89 C31        -4.2210    4.5420   -0.5600 ca        1 MOL     -0.207073
     90 C32        -2.7870    6.3010   -1.4460 ca        1 MOL     -0.207073
     91 C33        -4.0690    5.9450   -0.9990 ca        1 MOL      0.322208
     92 O14        -5.0810    6.8320   -0.8710 oh        1 MOL     -0.490418
     93 H37        -1.0600    1.0630    1.0250 hn        1 MOL      0.138796
     94 H38         0.2900    3.6470    0.5060 h1        1 MOL     -0.051115
     95 H39        -1.1710    2.0720   -1.6350 hc        1 MOL      0.035325
     96 H40        -0.0340    3.3940   -1.9020 hc        1 MOL      0.035325
     97 H41        -3.3650    2.5850   -0.5620 ha        1 MOL      0.087566
     98 H42        -0.7360    5.8080   -1.7380 ha        1 MOL      0.087566
     99 H43        -5.1960    4.2940   -0.1640 ha        1 MOL      0.121469
    100 H44        -2.6530    7.3370   -1.7430 ha        1 MOL      0.121469
    101 H45        -5.7900    6.3880   -0.4040 ho        1 MOL      0.400054
    102 N10         2.2380    2.5140   -0.7180 n         1 MOL     -0.375814
    103 C34         3.5590    1.9370   -1.1080 c3        1 MOL      0.071178
    104 C35         4.4860    2.1160    0.0950 c         1 MOL      0.273700
    105 O15         5.1040    1.0940    0.4410 o         1 MOL     -0.331787
    106 C36         4.0380    2.4320   -2.4130 c3        1 MOL      0.064661
    107 C37         3.0130    2.1560   -3.4930 c3        1 MOL      0.066369
    108 C38         5.4020    1.8130   -2.7740 c3        1 MOL     -0.452967
    109 C39         3.3090    2.4800   -4.9550 c3        1 MOL     -0.428443
    110 H46         2.1800    3.5220   -0.7750 hn        1 MOL      0.263422
    111 H47         3.4930    0.8550   -1.1400 h1        1 MOL      0.000203
    112 H48         4.0610    3.5190   -2.4730 hc        1 MOL     -0.009522
    113 H49         2.0780    2.6620   -3.2550 hc        1 MOL      0.057401
    114 H50         2.7310    1.1060   -3.4940 hc        1 MOL      0.057401
    115 H51         6.0960    1.9400   -1.9410 hc        1 MOL      0.133342
    116 H52         5.1930    0.7990   -3.1210 hc        1 MOL      0.133342
    117 H53         5.7140    2.3330   -3.6860 hc        1 MOL      0.133342
    118 H54         4.0920    1.8240   -5.3470 hc        1 MOL      0.115430
    119 H55         2.3920    2.3250   -5.5300 hc        1 MOL      0.115430
    120 H56         3.6310    3.5200   -4.9530 hc        1 MOL      0.115430
    121 N11         4.6120    3.2590    0.7430 n         1 MOL     -0.206632
    122 C40         5.5880    3.5830    1.6920 c3        1 MOL     -0.114293
    123 C41         7.0020    3.0780    1.3050 c         1 MOL      0.300201
    124 O16         7.7430    2.5600    2.1910 o         1 MOL     -0.438286
    125 C42         5.6210    5.0420    2.0490 c3        1 MOL      0.318840
    126 O17         4.3160    5.4620    2.5260 oh        1 MOL     -0.577982
    127 H57         4.0190    4.0240    0.4590 hn        1 MOL      0.217576
    128 H58         5.3110    3.0190    2.5780 h1        1 MOL      0.087958
    129 H59         5.8640    5.5240    1.1030 h1        1 MOL      0.019834
    130 H60         6.4250    5.1180    2.7890 h1        1 MOL      0.019834
    131 H61         3.7760    4.6670    2.5340 ho        1 MOL      0.377227
    132 N12         7.4510    3.2570    0.1050 n         1 MOL     -0.334500
    133 C43         8.6740    2.6650   -0.4950 c3        1 MOL      0.341900
    134 C44         9.1440    1.2080   -0.0360 c         1 MOL      0.485220
    135 O18        10.2740    0.9040    0.2370 o         1 MOL     -0.490557
    136 C45         9.8360    3.5860   -0.4170 c3        1 MOL     -0.345455
    137 H62         6.8430    3.7340   -0.5480 hn        1 MOL      0.245951
    138 H63         8.4810    2.6130   -1.5620 h1        1 MOL      0.006452
    139 H64        10.6900    3.1880   -0.9660 hc        1 MOL      0.088727
    140 H65         9.5920    4.5300   -0.9190 hc        1 MOL      0.088727
    141 H66        10.0130    3.7390    0.6440 hc        1 MOL      0.088727
    142 N13         8.1300    0.3070    0.0060 n         1 MOL     -0.492715
    143 C46         8.1380   -1.0500    0.4470 c3        1 MOL      0.407124
    144 C47         7.1310   -1.9220   -0.3600 c         1 MOL      0.328758
    145 O19         6.1900   -1.4500   -0.9990 o         1 MOL     -0.468920
    146 C48         7.7340   -1.0880    1.9500 c3        1 MOL     -0.261479
    147 H67         7.2350    0.7190   -0.2140 hn        1 MOL      0.079250
    148 H68         9.0720   -1.6060    0.3120 h1        1 MOL     -0.018524
    149 H69         8.5910   -0.7130    2.5150 hc        1 MOL      0.078942
    150 H70         6.8060   -0.5630    2.1800 hc        1 MOL      0.078942
    151 H71         7.5620   -2.1020    2.3020 hc        1 MOL      0.078942
    152 N14         7.3470   -3.2080   -0.3880 n         1 MOL     -0.272507
    153 C49         6.9160   -4.2460   -1.4460 c3        1 MOL      0.115861
    154 C50         7.2620   -3.8310   -2.9400 c         1 MOL      0.409806
    155 O20         6.4760   -3.9710   -3.8690 o         1 MOL     -0.469755
    156 C51         5.4880   -4.6780   -1.2410 c3        1 MOL      0.089502
    157 C52         5.0110   -4.8280    0.2190 c3        1 MOL     -0.234725
    158 C53         3.4490   -4.8710    0.1240 c         1 MOL      0.874467
    159 O21         2.8460   -3.9660    0.6980 o         1 MOL     -0.754828
    160 O22         2.8450   -5.8510   -0.3890 o         1 MOL     -0.754828
    161 H72         7.9950   -3.5570    0.3020 hn        1 MOL      0.215260
    162 H73         7.5910   -5.0600   -1.1920 h1        1 MOL      0.020130
    163 H74         5.3780   -5.6130   -1.7900 hc        1 MOL     -0.033402
    164 H75         4.8470   -3.9310   -1.7290 hc        1 MOL     -0.033402
    165 H76         5.4110   -4.0770    0.9060 hc        1 MOL      0.030956
    166 H77         5.4150   -5.7630    0.6220 hc        1 MOL      0.030956
    167 N15         8.5070   -3.3710   -3.1570 n         1 MOL     -0.270977
    168 C54         9.0600   -2.8820   -4.3880 c3        1 MOL     -0.136502
    169 H78         9.4800   -3.7130   -4.9530 h1        1 MOL      0.087773
    170 H79         8.2760   -2.4040   -4.9740 h1        1 MOL      0.087773
    171 H80         9.8460   -2.1570   -4.1720 h1        1 MOL      0.087773
    172 H81         9.0570   -3.2320   -2.3210 hn        1 MOL      0.196432
    173 Ca1         1.3310   -2.0220   -0.1980 Ca        1 MOL      1.764893
    174 O23         0.0210   -4.1490    0.9200 oh        1 MOL     -0.897475
    175 H82         0.5520   -4.7420    1.4380 ho        1 MOL      0.426797
    176 H83        -0.7110   -4.6760    0.6120 ho        1 MOL      0.426797
    177 O24         1.7050   -0.9490   -2.6430 oh        1 MOL     -0.897475
    178 H84         2.6290   -1.0820   -2.8760 ho        1 MOL      0.426797
    179 H85         1.2240   -1.2000   -3.4330 ho        1 MOL      0.426797
    180 O25         1.1300   -4.2160   -1.9280 oh        1 MOL     -0.897475
    181 H86         0.4260   -4.7790   -2.2600 ho        1 MOL      0.426797
    182 H87         1.8320   -4.8300   -1.7120 ho        1 MOL      0.426797
    183 O26         3.8940   -1.3620    0.3230 oh        1 MOL     -0.897475
    184 H88         4.5820   -1.6360   -0.2860 ho        1 MOL      0.426797
    185 H89         4.1520   -0.4830    0.6020 ho        1 MOL      0.426797
@<TRIPOS>BOND
     1    1    2 1   
     2    1    4 1   
     3    1    5 1   
     4    1    6 1   
     5    2    3 2   
     6    2    7 1   
     7    7    8 1   
     8    7   15 1   
     9    8    9 1   
    10    8   11 1   
    11    8   16 1   
    12    9   10 2   
    13    9   19 1   
    14   11   12 1   
    15   11   17 1   
    16   11   18 1   
    17   12   13 1   
    18   12   14 1   
    19   19   20 1   
    20   19   28 1   
    21   20   21 1   
    22   20   23 1   
    23   20   29 1   
    24   21   22 2   
    25   21   41 1   
    26   23   24 1   
    27   23   30 1   
    28   23   31 1   
    29   24   25 1   
    30   24   32 1   
    31   24   33 1   
    32   25   26 1   
    33   25   34 1   
    34   25   35 1   
    35   26   27 1   
    36   26   36 1   
    37   26   37 1   
    38   27   38 1   
    39   27   39 1   
    40   27   40 1   
    41   41   42 1   
    42   41   49 1   
    43   42   43 1   
    44   42   45 1   
    45   42   50 1   
    46   43   44 2   
    47   43   53 1   
    48   45   46 1   
    49   45   51 1   
    50   45   52 1   
    51   46   47 1   
    52   46   48 1   
    53   53   54 1   
    54   53   57 1   
    55   54   55 1   
    56   54   58 1   
    57   54   59 1   
    58   55   56 2   
    59   55   60 1   
    60   60   61 1   
    61   60   68 1   
    62   61   62 1   
    63   61   64 1   
    64   61   69 1   
    65   62   63 2   
    66   62   74 1   
    67   64   65 1   
    68   64   70 1   
    69   64   71 1   
    70   65   66 1   
    71   65   67 2   
    72   66   72 1   
    73   66   73 1   
    74   74   75 1   
    75   74   78 1   
    76   75   76 1   
    77   75   79 1   
    78   75   80 1   
    79   76   77 2   
    80   76   81 1   
    81   81   82 1   
    82   81   93 1   
    83   82   83 1   
    84   82   85 1   
    85   82   94 1   
    86   83   84 2   
    87   83  102 1   
    88   85   86 1   
    89   85   95 1   
    90   85   96 1   
    91   86   87 ar  
    92   86   88 ar  
    93   87   89 ar  
    94   87   97 1   
    95   88   90 ar  
    96   88   98 1   
    97   89   91 ar  
    98   89   99 1   
    99   90   91 ar  
   100   90  100 1   
   101   91   92 1   
   102   92  101 1   
   103  102  103 1   
   104  102  110 1   
   105  103  104 1   
   106  103  106 1   
   107  103  111 1   
   108  104  105 2   
   109  104  121 1   
   110  106  107 1   
   111  106  108 1   
   112  106  112 1   
   113  107  109 1   
   114  107  113 1   
   115  107  114 1   
   116  108  115 1   
   117  108  116 1   
   118  108  117 1   
   119  109  118 1   
   120  109  119 1   
   121  109  120 1   
   122  121  122 1   
   123  121  127 1   
   124  122  123 1   
   125  122  125 1   
   126  122  128 1   
   127  123  124 2   
   128  123  132 1   
   129  125  126 1   
   130  125  129 1   
   131  125  130 1   
   132  126  131 1   
   133  132  133 1   
   134  132  137 1   
   135  133  134 1   
   136  133  136 1   
   137  133  138 1   
   138  134  135 2   
   139  134  142 1   
   140  136  139 1   
   141  136  140 1   
   142  136  141 1   
   143  142  143 1   
   144  142  147 1   
   145  143  144 1   
   146  143  146 1   
   147  143  148 1   
   148  144  145 2   
   149  144  152 1   
   150  146  149 1   
   151  146  150 1   
   152  146  151 1   
   153  152  153 1   
   154  152  161 1   
   155  153  154 1   
   156  153  156 1   
   157  153  162 1   
   158  154  155 2   
   159  154  167 1   
   160  156  157 1   
   161  156  163 1   
   162  156  164 1   
   163  157  158 1   
   164  157  165 1   
   165  157  166 1   
   166  158  159 1   
   167  158  160 1   
   168  167  168 1   
   169  167  172 1   
   170  168  169 1   
   171  168  170 1   
   172  168  171 1   
   173  174  175 1   
   174  174  176 1   
   175  177  178 1   
   176  177  179 1   
   177  180  181 1   
   178  180  182 1   
   179  183  184 1   
   180  183  185 1   
@<TRIPOS>SUBSTRUCTURE
     1 MOL         1 TEMP              0 ****  ****    0 ROOT
