@<TRIPOS>MOLECULE
MOL
  178   175     1     0     0
SMALL
resp


@<TRIPOS>ATOM
      1 C1         -6.0790    7.9550    1.4700 c3        1 MOL     -0.472031
      2 C2         -7.1990    7.2530    0.7220 c         1 MOL      0.652248
      3 O1         -7.5000    7.6220   -0.4420 o         1 MOL     -0.588441
      4 H1         -6.0190    7.5630    2.4850 hc        1 MOL      0.116924
      5 H2         -5.1340    7.7810    0.9570 hc        1 MOL      0.116924
      6 H3         -6.2820    9.0270    1.5070 hc        1 MOL      0.116924
      7 N1         -7.8860    6.3420    1.3250 n         1 MOL     -0.443573
      8 C3         -8.8040    5.5040    0.5880 c3        1 MOL      0.268248
      9 C4         -8.2490    4.4190   -0.2540 c         1 MOL      0.534825
     10 O2         -8.9190    3.8060   -1.1070 o         1 MOL     -0.488760
     11 C5         -9.8470    5.0280    1.5980 c3        1 MOL     -0.218847
     12 C6        -11.1220    4.4160    0.8990 c         1 MOL      0.623918
     13 O3        -11.3500    3.1970    1.0610 o         1 MOL     -0.697396
     14 O4        -11.8080    5.0890    0.0380 o         1 MOL     -0.697396
     15 H4         -7.5740    6.0480    2.2330 hn        1 MOL      0.249654
     16 H5         -9.3860    6.1120   -0.1000 h1        1 MOL      0.014194
     17 H6        -10.1990    5.8910    2.1600 hc        1 MOL      0.006214
     18 H7         -9.5250    4.2170    2.2600 hc        1 MOL      0.006214
     19 N2         -6.9650    4.0660   -0.0340 n         1 MOL     -0.667829
     20 C7         -6.2790    2.9490   -0.6430 c3        1 MOL      0.569470
     21 C8         -5.3370    2.2330    0.2660 c         1 MOL      0.271959
     22 O5         -4.6250    2.9370    1.0110 o         1 MOL     -0.539968
     23 C9         -5.4990    3.4810   -1.8630 c3        1 MOL     -0.279489
     24 H8         -6.5260    4.4700    0.7800 hn        1 MOL      0.267444
     25 H9         -7.0600    2.3030   -1.0370 h1        1 MOL     -0.027784
     26 H10        -4.7620    4.2230   -1.5760 hc        1 MOL      0.072563
     27 H11        -5.0210    2.6010   -2.2800 hc        1 MOL      0.072563
     28 H12        -6.2490    3.8740   -2.5550 hc        1 MOL      0.072563
     29 N3         -5.1190    0.9300    0.2280 n         1 MOL     -0.146420
     30 C10        -5.9140   -0.0920   -0.5040 c3        1 MOL     -0.242890
     31 C11        -5.7590   -1.4980    0.2590 c         1 MOL      0.473928
     32 O6         -4.8900   -1.6140    1.1240 o         1 MOL     -0.491266
     33 C12        -5.4340   -0.2200   -1.9630 c3        1 MOL     -0.005049
     34 C13        -3.8930   -0.2980   -2.1830 c         1 MOL      0.590014
     35 O7         -3.3770    0.2580   -3.1680 o         1 MOL     -0.679363
     36 O8         -3.2080   -0.7390   -1.2330 o         1 MOL     -0.679363
     37 H13        -4.4250    0.6080    0.8860 hn        1 MOL      0.230516
     38 H14        -6.9690    0.1760   -0.4470 h1        1 MOL      0.107676
     39 H15        -5.7050    0.6960   -2.4960 hc        1 MOL      0.010488
     40 H16        -5.9340   -1.0410   -2.4720 hc        1 MOL      0.010488
     41 N4         -6.6280   -2.4260   -0.0670 n         1 MOL     -0.301107
     42 C14        -6.7840   -3.7820    0.4430 c3        1 MOL      0.003158
     43 C15        -6.8500   -4.7260   -0.7600 c         1 MOL      0.553849
     44 O9         -7.9490   -5.1340   -1.0090 o         1 MOL     -0.527771
     45 H17        -7.3310   -2.2160   -0.7530 hn        1 MOL      0.284732
     46 H18        -7.7340   -3.8160    0.9760 h1        1 MOL      0.053310
     47 H19        -6.0110   -3.9830    1.1790 h1        1 MOL      0.053310
     48 N5         -5.7100   -5.0130   -1.4790 n         1 MOL     -0.565707
     49 C16        -4.3450   -4.5570   -1.1790 c3        1 MOL      0.069813
     50 C17        -3.9030   -5.2880    0.0950 c         1 MOL      0.451543
     51 O10        -3.6130   -6.4850    0.2140 o         1 MOL     -0.563171
     52 C18        -3.3840   -4.7700   -2.3900 c3        1 MOL      0.297962
     53 C19        -2.0280   -4.0730   -2.1090 c         1 MOL      0.151741
     54 N6         -1.1590   -4.0840   -3.0820 n         1 MOL     -0.561199
     55 O11        -1.8210   -3.6050   -1.0050 o         1 MOL     -0.294992
     56 H20        -5.8670   -5.5440   -2.3180 hn        1 MOL      0.312523
     57 H21        -4.4540   -3.4960   -0.9680 h1        1 MOL      0.003542
     58 H22        -3.8400   -4.3590   -3.2910 hc        1 MOL     -0.033720
     59 H23        -3.3790   -5.8390   -2.6260 hc        1 MOL     -0.033720
     60 H24        -1.4360   -4.4240   -3.9930 hn        1 MOL      0.317433
     61 H25        -0.2400   -3.6830   -2.9520 hn        1 MOL      0.317433
     62 N7         -3.7110   -4.5200    1.1420 n         1 MOL      0.055292
     63 C20        -3.3630   -5.0030    2.4300 c3        1 MOL     -0.208138
     64 C21        -1.8810   -5.4490    2.5840 c         1 MOL      0.574923
     65 O12        -1.5770   -6.3240    3.3630 o         1 MOL     -0.552752
     66 H26        -3.8180   -3.5200    1.0660 hn        1 MOL      0.085209
     67 H27        -4.0880   -5.7550    2.7250 h1        1 MOL      0.079119
     68 H28        -3.5240   -4.2050    3.1510 h1        1 MOL      0.079119
     69 N8         -0.9510   -4.7710    1.8790 n         1 MOL     -0.402694
     70 C22         0.5300   -5.0260    1.7640 c3        1 MOL     -0.008391
     71 C23         1.2970   -3.7620    1.5490 c         1 MOL      0.467757
     72 O13         0.8360   -2.8460    0.7810 o         1 MOL     -0.575608
     73 C24         0.8840   -6.0640    0.6740 c3        1 MOL      0.348117
     74 C25         0.2530   -7.4580    0.7070 c3        1 MOL     -0.505775
     75 O14         0.6080   -5.6840   -0.7090 oh        1 MOL     -0.602871
     76 H29        -1.3460   -4.1640    1.1730 hn        1 MOL      0.174139
     77 H30         0.8410   -5.5570    2.6600 h1        1 MOL      0.071083
     78 H31         1.9580   -6.2250    0.7090 h1        1 MOL     -0.004490
     79 H32         1.3050   -5.0870   -0.9850 ho        1 MOL      0.448073
     80 H33         0.6230   -8.1390   -0.0610 hc        1 MOL      0.136170
     81 H34         0.4020   -7.8890    1.7030 hc        1 MOL      0.136170
     82 H35        -0.8150   -7.3080    0.5270 hc        1 MOL      0.136170
     83 N9          2.3650   -3.6160    2.2730 n         1 MOL     -0.433487
     84 C26         3.3250   -2.4850    2.1330 c3        1 MOL      0.134896
     85 C27         4.2720   -2.7750    0.9480 c         1 MOL      0.424241
     86 O15         5.0120   -3.7400    0.9070 o         1 MOL     -0.573662
     87 C28         4.0740   -2.2070    3.4660 c3        1 MOL      0.135017
     88 C29         5.1510   -1.1060    3.2020 c3        1 MOL     -0.201402
     89 C30         3.0600   -1.8960    4.6230 c3        1 MOL     -0.278600
     90 C31         4.7080    0.2220    2.5590 c3        1 MOL     -0.105723
     91 H36         2.6330   -4.4690    2.7550 hn        1 MOL      0.274968
     92 H37         2.7840   -1.5620    1.9340 h1        1 MOL      0.161854
     93 H38         4.7160   -3.0790    3.6450 hc        1 MOL     -0.017677
     94 H39         5.9240   -1.4720    2.5310 hc        1 MOL      0.045090
     95 H40         5.5490   -0.8640    4.1870 hc        1 MOL      0.045090
     96 H41         3.5410   -1.6160    5.5640 hc        1 MOL      0.070983
     97 H42         2.2850   -1.1880    4.3670 hc        1 MOL      0.070983
     98 H43         2.6010   -2.8560    4.8790 hc        1 MOL      0.070983
     99 H44         3.8860    0.7220    3.0590 hc        1 MOL      0.034997
    100 H45         5.6190    0.8250    2.5340 hc        1 MOL      0.034997
    101 H46         4.4060    0.0220    1.5250 hc        1 MOL      0.034997
    102 N10         4.1070   -2.0470   -0.1460 n         1 MOL      0.060063
    103 C32         4.7620   -2.2040   -1.4010 c3        1 MOL     -0.051300
    104 C33         5.9980   -1.3530   -1.6670 c         1 MOL      0.577325
    105 O16         6.7730   -1.5190   -2.6100 o         1 MOL     -0.563161
    106 C34         3.6450   -2.2110   -2.4970 c3        1 MOL     -0.323124
    107 C35         2.4050   -3.1190   -2.2030 c         1 MOL      0.856059
    108 O17         2.5620   -4.3440   -1.9180 o         1 MOL     -0.747347
    109 O18         1.2860   -2.6550   -2.2280 o         1 MOL     -0.747347
    110 H47         3.3550   -1.3900   -0.0730 hn        1 MOL     -0.078753
    111 H48         5.1310   -3.2300   -1.4730 h1        1 MOL      0.083782
    112 H49         4.1350   -2.5150   -3.4190 hc        1 MOL      0.080014
    113 H50         3.4580   -1.1680   -2.7440 hc        1 MOL      0.080014
    114 N11         6.1740   -0.4280   -0.7810 n         1 MOL     -0.610230
    115 C36         7.2150    0.5710   -0.8930 c3        1 MOL      0.300142
    116 C37         6.8430    2.0570   -0.5600 c         1 MOL      0.407843
    117 O19         6.3220    2.2930    0.4820 o         1 MOL     -0.495194
    118 C38         8.3720   -0.0390   -0.0910 c3        1 MOL     -0.192970
    119 C39         9.3640    0.9370    0.3600 ca        1 MOL      0.120718
    120 C40         9.3820    1.3280    1.7070 ca        1 MOL     -0.184020
    121 C41        10.3180    1.3410   -0.5500 ca        1 MOL     -0.184020
    122 C42        10.3780    2.1970    2.0950 ca        1 MOL     -0.080740
    123 C43        11.3220    2.2730   -0.1090 ca        1 MOL     -0.080740
    124 C44        11.3820    2.6120    1.2470 ca        1 MOL     -0.166156
    125 H51         5.4120   -0.2040   -0.1640 hn        1 MOL      0.455106
    126 H52         7.5260    0.5700   -1.9430 h1        1 MOL      0.003738
    127 H53         8.8690   -0.7820   -0.7110 hc        1 MOL      0.070439
    128 H54         7.9650   -0.6860    0.6950 hc        1 MOL      0.070439
    129 H55         8.6980    0.9150    2.4320 ha        1 MOL      0.128628
    130 H56        10.3610    1.0280   -1.5810 ha        1 MOL      0.128628
    131 H57        10.3320    2.5530    3.1130 ha        1 MOL      0.095671
    132 H58        12.0860    2.6450   -0.7810 ha        1 MOL      0.095671
    133 H59        12.1230    3.3150    1.5870 ha        1 MOL      0.110720
    134 N12         7.1410    2.9920   -1.4270 n         1 MOL     -0.227155
    135 C45         6.8000    4.4270   -1.1890 c3        1 MOL      0.179658
    136 C46         5.2780    4.7580   -0.9540 c         1 MOL      0.318125
    137 O20         5.0740    5.9710   -0.9220 o         1 MOL     -0.517023
    138 C47         7.3590    5.1960   -2.3940 c3        1 MOL     -0.234191
    139 C48         8.4140    4.2300   -3.0090 c3        1 MOL      0.020424
    140 C49         7.8960    2.8340   -2.6230 c3        1 MOL      0.052739
    141 H60         7.2490    4.6840   -0.2260 h1        1 MOL      0.053496
    142 H61         6.5140    5.2660   -3.0690 hc        1 MOL      0.098007
    143 H62         7.7260    6.1850   -2.0950 hc        1 MOL      0.098007
    144 H63         8.5250    4.2980   -4.0920 hc        1 MOL      0.011928
    145 H64         9.3890    4.4150   -2.5480 hc        1 MOL      0.011928
    146 H65         7.2780    2.3300   -3.3690 h1        1 MOL      0.028576
    147 H66         8.7480    2.1550   -2.6300 h1        1 MOL      0.028576
    148 N13         4.3020    3.8500   -0.7630 n         1 MOL     -0.118076
    149 C50         3.0000    4.2650   -0.1850 c3        1 MOL     -0.344247
    150 C51         2.9630    4.8910    1.1930 c         1 MOL      0.581028
    151 O21         1.9500    5.5280    1.4800 o         1 MOL     -0.521763
    152 C52         2.0560    3.0760   -0.2100 c3        1 MOL      0.065161
    153 C53         2.6060    1.7850    0.4800 c3        1 MOL     -0.126949
    154 C54         1.6090    0.6280    0.3170 c         1 MOL      0.709650
    155 O22         1.7790   -0.2190   -0.5820 o         1 MOL     -0.714856
    156 O23         0.6660    0.5330    1.1000 o         1 MOL     -0.714856
    157 H67         4.5510    2.8720   -0.7670 hn        1 MOL      0.095001
    158 H68         2.5910    5.0540   -0.8280 h1        1 MOL      0.176862
    159 H69         1.7830    2.7960   -1.2340 hc        1 MOL      0.043905
    160 H70         1.1750    3.5440    0.2250 hc        1 MOL      0.043905
    161 H71         2.6780    2.0130    1.5510 hc        1 MOL      0.024186
    162 H72         3.5520    1.5040    0.0320 hc        1 MOL      0.024186
    163 N14         4.0610    4.7690    1.9830 n         1 MOL     -0.210390
    164 C55         4.1270    5.3080    3.3510 c3        1 MOL     -0.257915
    165 H73         5.1670    5.3480    3.6760 h1        1 MOL      0.106757
    166 H74         3.7030    6.3110    3.3670 h1        1 MOL      0.106757
    167 H75         3.5620    4.6630    4.0240 h1        1 MOL      0.106757
    168 H76         4.8230    4.1380    1.7430 hn        1 MOL      0.214828
    169 Ca1        -0.6420   -1.2460   -0.6430 Ca        1 MOL      1.748504
    170 O24        -0.8990   -0.8240   -3.3520 oh        1 MOL     -0.876931
    171 H77        -0.8220   -1.4960   -4.0250 ho        1 MOL      0.418523
    172 H78        -1.7920   -0.5140   -3.4160 ho        1 MOL      0.418523
    173 O25        -1.3480    1.1940   -1.2250 oh        1 MOL     -0.876931
    174 H79        -2.1080    1.1170   -1.8150 ho        1 MOL      0.418523
    175 H80        -1.1900    2.1430   -1.1680 ho        1 MOL      0.418523
    176 O26        -2.1950   -1.3480    1.4810 oh        1 MOL     -0.876931
    177 H81        -3.1220   -1.5380    1.6260 ho        1 MOL      0.418523
    178 H82        -2.0080   -0.6290    2.0790 ho        1 MOL      0.418523
@<TRIPOS>BOND
     1    1    2 1   
     2    1    4 1   
     3    1    5 1   
     4    1    6 1   
     5    2    3 2   
     6    2    7 1   
     7    7    8 1   
     8    7   15 1   
     9    8    9 1   
    10    8   11 1   
    11    8   16 1   
    12    9   10 2   
    13    9   19 1   
    14   11   12 1   
    15   11   17 1   
    16   11   18 1   
    17   12   13 1   
    18   12   14 1   
    19   19   20 1   
    20   19   24 1   
    21   20   21 1   
    22   20   23 1   
    23   20   25 1   
    24   21   22 2   
    25   21   29 1   
    26   23   26 1   
    27   23   27 1   
    28   23   28 1   
    29   29   30 1   
    30   29   37 1   
    31   30   31 1   
    32   30   33 1   
    33   30   38 1   
    34   31   32 2   
    35   31   41 1   
    36   33   34 1   
    37   33   39 1   
    38   33   40 1   
    39   34   35 1   
    40   34   36 1   
    41   41   42 1   
    42   41   45 1   
    43   42   43 1   
    44   42   46 1   
    45   42   47 1   
    46   43   44 2   
    47   43   48 1   
    48   48   49 1   
    49   48   56 1   
    50   49   50 1   
    51   49   52 1   
    52   49   57 1   
    53   50   51 2   
    54   50   62 1   
    55   52   53 1   
    56   52   58 1   
    57   52   59 1   
    58   53   54 1   
    59   53   55 2   
    60   54   60 1   
    61   54   61 1   
    62   62   63 1   
    63   62   66 1   
    64   63   64 1   
    65   63   67 1   
    66   63   68 1   
    67   64   65 2   
    68   64   69 1   
    69   69   70 1   
    70   69   76 1   
    71   70   71 1   
    72   70   73 1   
    73   70   77 1   
    74   71   72 2   
    75   71   83 1   
    76   73   74 1   
    77   73   75 1   
    78   73   78 1   
    79   74   80 1   
    80   74   81 1   
    81   74   82 1   
    82   75   79 1   
    83   83   84 1   
    84   83   91 1   
    85   84   85 1   
    86   84   87 1   
    87   84   92 1   
    88   85   86 2   
    89   85  102 1   
    90   87   88 1   
    91   87   89 1   
    92   87   93 1   
    93   88   90 1   
    94   88   94 1   
    95   88   95 1   
    96   89   96 1   
    97   89   97 1   
    98   89   98 1   
    99   90   99 1   
   100   90  100 1   
   101   90  101 1   
   102  102  103 1   
   103  102  110 1   
   104  103  104 1   
   105  103  106 1   
   106  103  111 1   
   107  104  105 2   
   108  104  114 1   
   109  106  107 1   
   110  106  112 1   
   111  106  113 1   
   112  107  108 1   
   113  107  109 1   
   114  114  115 1   
   115  114  125 1   
   116  115  116 1   
   117  115  118 1   
   118  115  126 1   
   119  116  117 2   
   120  116  134 1   
   121  118  119 1   
   122  118  127 1   
   123  118  128 1   
   124  119  120 ar  
   125  119  121 ar  
   126  120  122 ar  
   127  120  129 1   
   128  121  123 ar  
   129  121  130 1   
   130  122  124 ar  
   131  122  131 1   
   132  123  124 ar  
   133  123  132 1   
   134  124  133 1   
   135  134  135 1   
   136  134  140 1   
   137  135  136 1   
   138  135  138 1   
   139  135  141 1   
   140  136  137 2   
   141  136  148 1   
   142  138  139 1   
   143  138  142 1   
   144  138  143 1   
   145  139  140 1   
   146  139  144 1   
   147  139  145 1   
   148  140  146 1   
   149  140  147 1   
   150  148  149 1   
   151  148  157 1   
   152  149  150 1   
   153  149  152 1   
   154  149  158 1   
   155  150  151 2   
   156  150  163 1   
   157  152  153 1   
   158  152  159 1   
   159  152  160 1   
   160  153  154 1   
   161  153  161 1   
   162  153  162 1   
   163  154  155 1   
   164  154  156 1   
   165  163  164 1   
   166  163  168 1   
   167  164  165 1   
   168  164  166 1   
   169  164  167 1   
   170  170  171 1   
   171  170  172 1   
   172  173  174 1   
   173  173  175 1   
   174  176  177 1   
   175  176  178 1   
@<TRIPOS>SUBSTRUCTURE
     1 MOL         1 TEMP              0 ****  ****    0 ROOT
