@<TRIPOS>MOLECULE
MOL
  186   183     1     0     0
SMALL
resp


@<TRIPOS>ATOM
      1 C1          5.0870    3.6360   -3.7090 c3        1 MOL     -0.464414
      2 C2          5.8030    2.8450   -2.5940 c         1 MOL      0.901582
      3 O1          5.2940    2.8000   -1.4740 o         1 MOL     -0.656158
      4 H1          5.7580    3.7520   -4.5600 hc        1 MOL      0.113411
      5 H2          4.1930    3.0950   -4.0220 hc        1 MOL      0.113411
      6 H3          4.8040    4.6200   -3.3340 hc        1 MOL      0.113411
      7 N1          6.8770    2.1700   -2.8350 n         1 MOL     -0.763403
      8 C3          7.4150    1.0510   -2.0210 c3        1 MOL      0.192667
      9 C4          6.3620    0.0350   -1.5310 c         1 MOL      0.562744
     10 O2          6.0320   -0.0550   -0.3340 o         1 MOL     -0.681911
     11 C5          8.3760    1.4240   -0.9440 c3        1 MOL      0.041776
     12 C6          8.0730    2.7570   -0.2180 c         1 MOL      0.687152
     13 O3          7.3480    2.7280    0.8010 o         1 MOL     -0.725632
     14 O4          8.6350    3.8130   -0.5980 o         1 MOL     -0.725632
     15 H4          7.4150    2.3110   -3.6810 hn        1 MOL      0.339171
     16 H5          8.1010    0.4060   -2.5700 h1        1 MOL      0.035132
     17 H6          9.3730    1.5550   -1.3700 hc        1 MOL     -0.028381
     18 H7          8.4800    0.6340   -0.2050 hc        1 MOL     -0.028381
     19 N2          5.8420   -0.7150   -2.5190 n         1 MOL     -0.541482
     20 C7          4.9090   -1.9210   -2.4250 c3        1 MOL      0.447190
     21 C8          5.3790   -3.0370   -1.4820 c         1 MOL      0.281194
     22 O5          5.7900   -4.0280   -2.0820 o         1 MOL     -0.539420
     23 C9          3.4690   -1.5370   -2.2920 c3        1 MOL      0.257706
     24 C10         2.4320   -2.5870   -2.7340 c3        1 MOL     -0.054240
     25 C11         3.1060   -0.2260   -2.9600 c3        1 MOL     -0.055231
     26 C12         2.5870   -3.3270   -4.0220 c3        1 MOL     -0.355458
     27 H8          6.1180   -0.5190   -3.4740 hn        1 MOL      0.258279
     28 H9          4.9120   -2.3710   -3.4140 h1        1 MOL     -0.055725
     29 H10         3.1950   -1.4910   -1.2420 hc        1 MOL     -0.221898
     30 H11         1.4340   -2.1380   -2.6410 hc        1 MOL      0.069592
     31 H12         2.3240   -3.3560   -1.9650 hc        1 MOL      0.069592
     32 H13         3.5930    0.5680   -2.3840 hc        1 MOL     -0.024035
     33 H14         3.6800   -0.2060   -3.8860 hc        1 MOL     -0.024035
     34 H15         2.0550    0.0130   -3.0650 hc        1 MOL     -0.024035
     35 H16         2.4650   -2.6210   -4.8460 hc        1 MOL      0.078042
     36 H17         3.5440   -3.8440   -4.0120 hc        1 MOL      0.078042
     37 H18         1.8290   -4.1030   -4.1070 hc        1 MOL      0.078042
     38 N3          5.5180   -2.9560   -0.1330 n         1 MOL     -0.344522
     39 C13         6.2780   -3.9440    0.6460 c3        1 MOL      0.387537
     40 C14         5.4730   -5.0040    1.3870 c         1 MOL      0.337925
     41 O6          6.0180   -6.1210    1.5480 o         1 MOL     -0.582998
     42 C15         7.2280   -3.2640    1.5600 c3        1 MOL     -0.439675
     43 C16         8.2570   -2.2500    0.9070 c         1 MOL      0.806859
     44 O7          8.8770   -1.5030    1.6920 o         1 MOL     -0.717656
     45 O8          8.4640   -2.1920   -0.2890 o         1 MOL     -0.717656
     46 H19         5.5860   -2.0400    0.3070 hn        1 MOL      0.444066
     47 H20         6.9230   -4.4770   -0.0650 h1        1 MOL      0.018532
     48 H21         7.7750   -4.1240    1.9320 hc        1 MOL      0.076627
     49 H22         6.6360   -2.7420    2.3110 hc        1 MOL      0.076627
     50 N4          4.2620   -4.7930    1.9000 n         1 MOL     -0.334693
     51 C17         3.4420   -3.5790    1.9680 c3        1 MOL     -0.003389
     52 C18         2.3380   -3.6690    2.9560 c         1 MOL      0.577932
     53 O9          1.9500   -4.8030    3.2720 o         1 MOL     -0.585003
     54 H23         3.8150   -5.6150    2.2940 hn        1 MOL      0.270756
     55 H24         3.0190   -3.2460    1.0300 h1        1 MOL      0.044810
     56 H25         4.0830   -2.7260    2.1750 h1        1 MOL      0.044810
     57 N5          1.7900   -2.5800    3.5710 n         1 MOL     -0.588521
     58 C19         1.8560   -1.1560    3.2440 c3        1 MOL      0.380508
     59 C20         2.2280   -0.8150    1.7970 c         1 MOL      0.222408
     60 O10         3.3290   -0.5110    1.5230 o         1 MOL     -0.586915
     61 C21         2.7200   -0.3650    4.2450 c3        1 MOL     -0.493134
     62 C22         2.7260    1.1280    3.9390 c         1 MOL      0.725956
     63 O11         1.6970    1.7870    4.0740 o         1 MOL     -0.661014
     64 O12         3.7390    1.6830    3.5090 o         1 MOL     -0.661014
     65 H26         1.0650   -2.8190    4.2450 hn        1 MOL      0.309626
     66 H27         0.8230   -0.8650    3.4740 h1        1 MOL      0.029974
     67 H28         3.7300   -0.7670    4.3930 hc        1 MOL      0.113914
     68 H29         2.3670   -0.5230    5.2670 hc        1 MOL      0.113914
     69 N6          1.3860   -0.7610    0.8290 n         1 MOL     -0.040045
     70 C23        -0.0160   -1.0950    0.7590 c3        1 MOL     -0.296880
     71 C24        -0.3930   -2.6600    0.7240 c         1 MOL      0.369069
     72 O13         0.4700   -3.5540    0.4990 o         1 MOL     -0.437542
     73 H30         1.7970   -0.3810   -0.0130 hn        1 MOL      0.251101
     74 H31        -0.2470   -0.6630   -0.2150 h1        1 MOL      0.135803
     75 H32        -0.6700   -0.5980    1.4710 h1        1 MOL      0.135803
     76 N7         -1.6590   -2.9940    0.8840 n         1 MOL     -0.276632
     77 C25        -2.2150   -4.3360    0.5450 c3        1 MOL     -0.075005
     78 C26        -2.9510   -4.3730   -0.8150 c         1 MOL      0.455421
     79 O14        -3.2520   -5.4240   -1.2970 o         1 MOL     -0.528835
     80 C27        -3.1630   -4.7840    1.6880 c3        1 MOL      0.069299
     81 C28        -4.2060   -3.8600    2.2820 c3        1 MOL     -0.092982
     82 C29        -5.2220   -3.3320    1.2280 c         1 MOL      0.542074
     83 N8         -6.3160   -4.0230    0.8870 n         1 MOL     -0.652710
     84 O15        -5.2080   -2.1900    0.8030 o         1 MOL     -0.505910
     85 H33        -2.2620   -2.2050    1.0490 hn        1 MOL      0.246390
     86 H34        -1.4430   -5.1040    0.4720 h1        1 MOL      0.140041
     87 H35        -2.6210   -5.1580    2.5560 hc        1 MOL      0.007916
     88 H36        -3.6900   -5.6520    1.2890 hc        1 MOL      0.007916
     89 H37        -3.7540   -2.9670    2.7110 hc        1 MOL      0.046145
     90 H38        -4.7460   -4.5000    2.9760 hc        1 MOL      0.046145
     91 H39        -6.6220   -4.9140    1.2470 hn        1 MOL      0.323743
     92 H40        -7.0530   -3.5910    0.3360 hn        1 MOL      0.323743
     93 N9         -3.2090   -3.2270   -1.3970 n         1 MOL     -0.191083
     94 C30        -3.6580   -2.9820   -2.8240 c3        1 MOL     -0.251975
     95 C31        -4.9950   -2.0790   -2.9630 c         1 MOL      0.576528
     96 O16        -5.5660   -1.9340   -4.0240 o         1 MOL     -0.579174
     97 C32        -2.5540   -2.4870   -3.8390 c3        1 MOL      0.257315
     98 C33        -1.4520   -3.5930   -3.9920 c3        1 MOL     -0.235600
     99 C34        -1.9230   -1.1790   -3.5370 c3        1 MOL     -0.235600
    100 H41        -3.0210   -2.4480   -0.7760 hn        1 MOL      0.185275
    101 H42        -3.9250   -3.9730   -3.2070 h1        1 MOL      0.132372
    102 H43        -3.0630   -2.3430   -4.7910 hc        1 MOL     -0.003241
    103 H44        -0.9660   -4.0280   -3.1140 hc        1 MOL      0.055855
    104 H45        -1.8990   -4.3980   -4.5770 hc        1 MOL      0.055855
    105 H46        -0.5970   -3.2120   -4.5450 hc        1 MOL      0.055855
    106 H47        -1.2910   -0.9600   -4.4050 hc        1 MOL      0.055855
    107 H48        -2.6780   -0.4110   -3.3650 hc        1 MOL      0.055855
    108 H49        -1.2310   -1.2420   -2.6980 hc        1 MOL      0.055855
    109 N10        -5.5090   -1.5220   -1.8830 n         1 MOL     -0.331223
    110 C35        -6.8050   -0.7720   -1.9050 c3        1 MOL      0.042429
    111 C36        -6.6470    0.6020   -1.3090 c         1 MOL      0.618323
    112 O17        -7.3090    1.4750   -1.8300 o         1 MOL     -0.575622
    113 C37        -7.8750   -1.6010   -1.1740 c3        1 MOL     -0.232890
    114 C38        -8.1100   -2.9330   -1.7780 c         1 MOL      0.645891
    115 N11        -8.1690   -2.9970   -3.0620 n         1 MOL     -0.735563
    116 O18        -8.2970   -3.9240   -1.1160 o         1 MOL     -0.589149
    117 H50        -5.1500   -1.7120   -0.9580 hn        1 MOL      0.189678
    118 H51        -7.2610   -0.5830   -2.8790 h1        1 MOL      0.076268
    119 H52        -8.7810   -0.9870   -1.2050 hc        1 MOL      0.087834
    120 H53        -7.5990   -1.6880   -0.1160 hc        1 MOL      0.087834
    121 H54        -7.9610   -2.2020   -3.6480 hn        1 MOL      0.361394
    122 H55        -8.3390   -3.9330   -3.4200 hn        1 MOL      0.361394
    123 N12        -5.7150    0.8940   -0.3900 n         1 MOL     -0.566489
    124 C39        -5.6430    2.2390    0.2640 c3        1 MOL      0.451888
    125 C40        -4.2840    2.8980    0.1700 c         1 MOL      0.295615
    126 O19        -3.2780    2.2500   -0.1980 o         1 MOL     -0.494520
    127 C41        -6.1650    2.0800    1.7300 c3        1 MOL     -0.222044
    128 C42        -7.4630    1.2640    1.7880 ca        1 MOL      0.039114
    129 C43        -8.6400    1.7830    1.1710 ca        1 MOL     -0.123779
    130 C44        -7.5190    0.1170    2.5870 ca        1 MOL     -0.123779
    131 C45        -9.8630    1.0960    1.2260 ca        1 MOL     -0.261707
    132 C46        -8.7190   -0.5920    2.6840 ca        1 MOL     -0.261707
    133 C47        -9.8840   -0.0980    2.0300 ca        1 MOL      0.278998
    134 O20       -11.0400   -0.8160    2.1310 oh        1 MOL     -0.487584
    135 H56        -5.1210    0.1890    0.0350 hn        1 MOL      0.254480
    136 H57        -6.3200    2.8660   -0.3260 h1        1 MOL     -0.035655
    137 H58        -6.4220    3.0430    2.1680 hc        1 MOL      0.104722
    138 H59        -5.4000    1.5840    2.3280 hc        1 MOL      0.104722
    139 H60        -8.5600    2.6900    0.5950 ha        1 MOL      0.125083
    140 H61        -6.6440   -0.0580    3.2020 ha        1 MOL      0.125083
    141 H62       -10.7710    1.5080    0.8050 ha        1 MOL      0.144196
    142 H63        -8.8130   -1.4810    3.2900 ha        1 MOL      0.144196
    143 H64       -11.7480   -0.3370    1.6980 ho        1 MOL      0.357630
    144 N13        -4.1890    4.1230    0.6580 n         1 MOL     -0.341842
    145 C48        -2.9720    4.9310    0.9850 c3        1 MOL      0.005739
    146 C49        -1.9400    5.2740   -0.0980 c         1 MOL      0.199993
    147 O21        -1.4160    6.4270   -0.1420 o         1 MOL     -0.490665
    148 C50        -2.2960    4.4410    2.2420 c3        1 MOL      0.268202
    149 C51        -3.1990    4.5480    3.4360 c3        1 MOL     -0.329040
    150 C52        -2.5450    4.4700    4.8490 c         1 MOL      0.756505
    151 O22        -2.2460    5.5540    5.3710 o         1 MOL     -0.730678
    152 O23        -2.2240    3.3740    5.3330 o         1 MOL     -0.730678
    153 H65        -5.0580    4.6230    0.7750 hn        1 MOL      0.251899
    154 H66        -3.3120    5.9250    1.2770 h1        1 MOL      0.086969
    155 H67        -1.4050    5.0310    2.5050 hc        1 MOL      0.039637
    156 H68        -1.8650    3.4380    2.2010 hc        1 MOL      0.039637
    157 H69        -3.9690    3.7720    3.4210 hc        1 MOL     -0.025757
    158 H70        -3.8120    5.4420    3.3200 hc        1 MOL     -0.025757
    159 N14        -1.6050    4.3750   -1.0320 n         1 MOL     -0.147261
    160 C53        -0.4500    4.4760   -1.9110 c3        1 MOL     -0.127590
    161 C54        -0.7810    5.1470   -3.3470 c         1 MOL      0.455457
    162 O24         0.2260    5.5550   -4.0190 o         1 MOL     -0.541352
    163 C55         0.1980    3.0850   -2.1130 c3        1 MOL     -0.155179
    164 C56         0.5470    2.3050   -0.8200 c3        1 MOL      0.244284
    165 C57         1.7520    2.8740   -0.0600 c         1 MOL      0.506813
    166 O25         1.9670    4.0470    0.3230 o         1 MOL     -0.578202
    167 O26         2.5880    2.0700    0.3150 o         1 MOL     -0.578202
    168 H71        -2.0880    3.4940   -1.0110 hn        1 MOL      0.217956
    169 H72         0.2990    5.1410   -1.4660 h1        1 MOL      0.148557
    170 H73         1.1300    3.1280   -2.6790 hc        1 MOL      0.047429
    171 H74        -0.5010    2.4930   -2.7000 hc        1 MOL      0.047429
    172 H75         0.6640    1.2620   -1.1040 hc        1 MOL     -0.091504
    173 H76        -0.3850    2.2400   -0.2580 hc        1 MOL     -0.091504
    174 N15        -2.0270    5.3470   -3.7190 n         1 MOL     -0.198700
    175 C58        -2.4990    5.8210   -5.0280 c3        1 MOL     -0.244889
    176 H77        -1.8550    6.6290   -5.3750 h1        1 MOL      0.097947
    177 H78        -2.4680    4.9990   -5.7450 h1        1 MOL      0.097947
    178 H79        -3.5220    6.1860   -4.9370 h1        1 MOL      0.097947
    179 H80        -2.7910    5.0450   -3.1210 hn        1 MOL      0.211373
    180 Ca1         4.9540    1.8600    1.1300 Ca        1 MOL      1.763726
    181 O27         4.4540    4.4190    1.5110 oh        1 MOL     -0.998733
    182 H81         4.9750    5.2150    1.5300 ho        1 MOL      0.446623
    183 H82         3.5830    4.6960    1.2340 ho        1 MOL      0.446623
    184 O28         6.4940    0.0960    2.4280 oh        1 MOL     -0.998733
    185 H83         6.6130   -0.1920    3.3280 ho        1 MOL      0.446623
    186 H84         7.2890   -0.1970    1.9720 ho        1 MOL      0.446623
@<TRIPOS>BOND
     1    1    2 1   
     2    1    4 1   
     3    1    5 1   
     4    1    6 1   
     5    2    3 2   
     6    2    7 1   
     7    7    8 1   
     8    7   15 1   
     9    8    9 1   
    10    8   11 1   
    11    8   16 1   
    12    9   10 2   
    13    9   19 1   
    14   11   12 1   
    15   11   17 1   
    16   11   18 1   
    17   12   13 1   
    18   12   14 1   
    19   19   20 1   
    20   19   27 1   
    21   20   21 1   
    22   20   23 1   
    23   20   28 1   
    24   21   22 2   
    25   21   38 1   
    26   23   24 1   
    27   23   25 1   
    28   23   29 1   
    29   24   26 1   
    30   24   30 1   
    31   24   31 1   
    32   25   32 1   
    33   25   33 1   
    34   25   34 1   
    35   26   35 1   
    36   26   36 1   
    37   26   37 1   
    38   38   39 1   
    39   38   46 1   
    40   39   40 1   
    41   39   42 1   
    42   39   47 1   
    43   40   41 2   
    44   40   50 1   
    45   42   43 1   
    46   42   48 1   
    47   42   49 1   
    48   43   44 1   
    49   43   45 1   
    50   50   51 1   
    51   50   54 1   
    52   51   52 1   
    53   51   55 1   
    54   51   56 1   
    55   52   53 2   
    56   52   57 1   
    57   57   58 1   
    58   57   65 1   
    59   58   59 1   
    60   58   61 1   
    61   58   66 1   
    62   59   60 2   
    63   59   69 1   
    64   61   62 1   
    65   61   67 1   
    66   61   68 1   
    67   62   63 1   
    68   62   64 1   
    69   69   70 1   
    70   69   73 1   
    71   70   71 1   
    72   70   74 1   
    73   70   75 1   
    74   71   72 2   
    75   71   76 1   
    76   76   77 1   
    77   76   85 1   
    78   77   78 1   
    79   77   80 1   
    80   77   86 1   
    81   78   79 2   
    82   78   93 1   
    83   80   81 1   
    84   80   87 1   
    85   80   88 1   
    86   81   82 1   
    87   81   89 1   
    88   81   90 1   
    89   82   83 1   
    90   82   84 2   
    91   83   91 1   
    92   83   92 1   
    93   93   94 1   
    94   93  100 1   
    95   94   95 1   
    96   94   97 1   
    97   94  101 1   
    98   95   96 2   
    99   95  109 1   
   100   97   98 1   
   101   97   99 1   
   102   97  102 1   
   103   98  103 1   
   104   98  104 1   
   105   98  105 1   
   106   99  106 1   
   107   99  107 1   
   108   99  108 1   
   109  109  110 1   
   110  109  117 1   
   111  110  111 1   
   112  110  113 1   
   113  110  118 1   
   114  111  112 2   
   115  111  123 1   
   116  113  114 1   
   117  113  119 1   
   118  113  120 1   
   119  114  115 1   
   120  114  116 2   
   121  115  121 1   
   122  115  122 1   
   123  123  124 1   
   124  123  135 1   
   125  124  125 1   
   126  124  127 1   
   127  124  136 1   
   128  125  126 2   
   129  125  144 1   
   130  127  128 1   
   131  127  137 1   
   132  127  138 1   
   133  128  129 ar  
   134  128  130 ar  
   135  129  131 ar  
   136  129  139 1   
   137  130  132 ar  
   138  130  140 1   
   139  131  133 ar  
   140  131  141 1   
   141  132  133 ar  
   142  132  142 1   
   143  133  134 1   
   144  134  143 1   
   145  144  145 1   
   146  144  153 1   
   147  145  146 1   
   148  145  148 1   
   149  145  154 1   
   150  146  147 2   
   151  146  159 1   
   152  148  149 1   
   153  148  155 1   
   154  148  156 1   
   155  149  150 1   
   156  149  157 1   
   157  149  158 1   
   158  150  151 1   
   159  150  152 1   
   160  159  160 1   
   161  159  168 1   
   162  160  161 1   
   163  160  163 1   
   164  160  169 1   
   165  161  162 2   
   166  161  174 1   
   167  163  164 1   
   168  163  170 1   
   169  163  171 1   
   170  164  165 1   
   171  164  172 1   
   172  164  173 1   
   173  165  166 1   
   174  165  167 1   
   175  174  175 1   
   176  174  179 1   
   177  175  176 1   
   178  175  177 1   
   179  175  178 1   
   180  181  182 1   
   181  181  183 1   
   182  184  185 1   
   183  184  186 1   
@<TRIPOS>SUBSTRUCTURE
     1 MOL         1 TEMP              0 ****  ****    0 ROOT
