@<TRIPOS>MOLECULE
MOL
  185   180     1     0     0
SMALL
resp


@<TRIPOS>ATOM
      1 C1         -5.0550    1.4040   -3.1350 c3        1 MOL     -0.473046
      2 C2         -6.2070    1.3540   -2.0020 c         1 MOL      0.559000
      3 O1         -5.9680    1.0550   -0.8720 o         1 MOL     -0.429221
      4 H1         -5.4470    0.9990   -4.0680 hc        1 MOL      0.125708
      5 H2         -4.7430    2.4370   -3.2910 hc        1 MOL      0.125708
      6 H3         -4.2010    0.8100   -2.8120 hc        1 MOL      0.125708
      7 N1         -7.4320    1.7630   -2.4290 n         1 MOL     -0.532186
      8 C3         -8.6010    1.7910   -1.5080 c3        1 MOL      0.294896
      9 C4         -8.7660    0.6340   -0.5360 c         1 MOL      0.271398
     10 O2         -9.0180    0.8260    0.6940 o         1 MOL     -0.414240
     11 C5         -8.6540    3.2320   -0.8760 c3        1 MOL     -0.302865
     12 C6         -9.9230    3.6280   -0.1800 c         1 MOL      0.694594
     13 O3         -9.9210    4.4940    0.6880 o         1 MOL     -0.637788
     14 O4        -10.9830    3.0290   -0.4960 o         1 MOL     -0.637788
     15 H4         -7.6100    1.6740   -3.4170 hn        1 MOL      0.295397
     16 H5         -9.5190    1.7780   -2.1010 h1        1 MOL     -0.034584
     17 H6         -8.3880    3.9540   -1.6460 hc        1 MOL      0.091328
     18 H7         -7.7720    3.3130   -0.2330 hc        1 MOL      0.091328
     19 N2         -8.5500   -0.6110   -0.9920 n         1 MOL     -0.271685
     20 C7         -8.5380   -1.8610   -0.2150 c3        1 MOL     -0.019924
     21 C8         -7.1770   -2.5180    0.2140 c         1 MOL      0.497155
     22 O5         -7.1360   -3.6210    0.7440 o         1 MOL     -0.537705
     23 C9         -9.5230   -2.7890   -0.9200 c3        1 MOL      0.074233
     24 C10       -10.9560   -2.3430   -1.2740 c3        1 MOL      0.212486
     25 C11       -11.8100   -3.3840   -1.9180 c3        1 MOL     -0.094596
     26 C12       -11.3550   -3.9210   -3.1780 c3        1 MOL     -0.011110
     27 N3        -11.1630   -2.9570   -4.3250 n4        1 MOL     -0.343707
     28 H8         -8.3990   -0.6400   -1.9960 hn        1 MOL      0.153074
     29 H9         -9.0310   -1.6700    0.7420 h1        1 MOL      0.140753
     30 H10        -9.4730   -3.6750   -0.2880 hc        1 MOL     -0.036914
     31 H11        -9.1430   -3.1230   -1.8870 hc        1 MOL     -0.036914
     32 H12       -10.9870   -1.5970   -2.0710 hc        1 MOL     -0.046970
     33 H13       -11.4880   -1.9440   -0.4140 hc        1 MOL     -0.046970
     34 H14       -12.7690   -2.9000   -2.0710 hc        1 MOL      0.068737
     35 H15       -11.9950   -4.1990   -1.2240 hc        1 MOL      0.068737
     36 H16       -12.1010   -4.6870   -3.3830 hx        1 MOL      0.087576
     37 H17       -10.4190   -4.4430   -2.9580 hx        1 MOL      0.087576
     38 H18       -10.9970   -3.2950   -5.2660 hn        1 MOL      0.272213
     39 H19       -11.9960   -2.3850   -4.3860 hn        1 MOL      0.272213
     40 H20       -10.3610   -2.3790   -4.1600 hn        1 MOL      0.272213
     41 N4         -5.9930   -1.8800    0.0020 n         1 MOL     -0.348576
     42 C13        -4.6500   -2.2540    0.3990 c3        1 MOL      0.010493
     43 C14        -4.5180   -2.4300    1.9350 c         1 MOL      0.669036
     44 O6         -4.9350   -1.6330    2.7470 o         1 MOL     -0.496329
     45 C15        -3.7320   -1.1920   -0.1450 c3        1 MOL     -0.220652
     46 C16        -2.3000   -1.7590   -0.0420 c         1 MOL      0.968993
     47 O7         -1.5680   -2.1680   -0.9840 o         1 MOL     -0.891217
     48 O8         -1.8100   -1.9560    1.0460 o         1 MOL     -0.891217
     49 H21        -6.0580   -0.9800   -0.4540 hn        1 MOL      0.209576
     50 H22        -4.5270   -3.2470   -0.0240 h1        1 MOL      0.019807
     51 H23        -3.7180   -0.3250    0.5180 hc        1 MOL      0.063285
     52 H24        -3.9760   -0.9610   -1.1830 hc        1 MOL      0.063285
     53 N5         -3.7820   -3.5100    2.3370 n         1 MOL     -0.413974
     54 C17        -3.5400   -3.8470    3.7030 c3        1 MOL     -0.228083
     55 C18        -2.8900   -2.7930    4.5490 c         1 MOL      0.585914
     56 O9         -3.0610   -2.8690    5.7820 o         1 MOL     -0.556291
     57 H25        -3.3550   -4.0900    1.6260 hn        1 MOL      0.270545
     58 H26        -2.9670   -4.7750    3.7560 h1        1 MOL      0.123073
     59 H27        -4.5210   -4.0380    4.1270 h1        1 MOL      0.123073
     60 N6         -2.1470   -1.8250    3.9270 n         1 MOL     -0.357626
     61 C19        -1.4500   -0.7380    4.5920 c3        1 MOL      0.077697
     62 C20        -1.7310    0.5880    3.9050 c         1 MOL      0.435149
     63 O10        -1.8510    1.6140    4.5660 o         1 MOL     -0.517055
     64 C21         0.0320   -1.0300    4.7920 c3        1 MOL     -0.291446
     65 C22         0.9360   -0.8140    3.5490 c         1 MOL      0.734247
     66 N7          1.7720    0.2280    3.5110 n         1 MOL     -0.816232
     67 O11         0.8610   -1.5630    2.6060 o         1 MOL     -0.631628
     68 H28        -2.0300   -1.9230    2.9360 hn        1 MOL      0.273762
     69 H29        -1.8560   -0.5690    5.5950 h1        1 MOL      0.113399
     70 H30         0.1290   -2.0280    5.2140 hc        1 MOL      0.091884
     71 H31         0.3470   -0.3310    5.5720 hc        1 MOL      0.091884
     72 H32         1.9070    0.7670    4.3590 hn        1 MOL      0.375815
     73 H33         2.2320    0.5350    2.6660 hn        1 MOL      0.375815
     74 N8         -1.8730    0.6260    2.5650 n         1 MOL     -0.191570
     75 C23        -1.9100    1.7990    1.7590 c3        1 MOL     -0.151759
     76 C24        -0.5170    2.4250    1.4800 c         1 MOL      0.602104
     77 O12         0.3900    2.4840    2.2880 o         1 MOL     -0.505205
     78 H34        -1.7780   -0.2680    2.1120 hn        1 MOL      0.143388
     79 H35        -2.5490    2.5350    2.2480 h1        1 MOL      0.123536
     80 H36        -2.3150    1.5840    0.7650 h1        1 MOL      0.123536
     81 N9         -0.2730    2.9510    0.2090 n         1 MOL     -0.721618
     82 C25         1.0020    3.5870   -0.2570 c3        1 MOL      0.545141
     83 C26         1.9470    2.6290   -0.9710 c         1 MOL      0.357612
     84 O13         1.5130    1.6540   -1.6010 o         1 MOL     -0.450259
     85 C27         0.6960    4.7860   -1.1960 c3        1 MOL     -0.335151
     86 C28        -0.5490    5.6260   -0.9090 ca        1 MOL      0.078274
     87 C29        -1.4960    5.8060   -1.9090 ca        1 MOL     -0.113131
     88 C30        -0.8570    6.2530    0.3100 ca        1 MOL     -0.113131
     89 C31        -2.6050    6.7240   -1.7970 ca        1 MOL     -0.367607
     90 C32        -1.9190    7.1860    0.5070 ca        1 MOL     -0.367607
     91 C33        -2.8050    7.3680   -0.5990 ca        1 MOL      0.492022
     92 O14        -3.7530    8.3360   -0.3550 oh        1 MOL     -0.548203
     93 H37        -0.9770    3.1160   -0.5030 hn        1 MOL      0.326995
     94 H38         1.5070    3.9740    0.6310 h1        1 MOL     -0.030312
     95 H39         0.6050    4.3010   -2.1700 hc        1 MOL      0.100945
     96 H40         1.5250    5.4990   -1.1420 hc        1 MOL      0.100945
     97 H41        -1.3120    5.3850   -2.8920 ha        1 MOL      0.121363
     98 H42        -0.1550    6.0970    1.1200 ha        1 MOL      0.121363
     99 H43        -3.2140    6.8610   -2.6750 ha        1 MOL      0.191620
    100 H44        -2.0060    7.6690    1.4710 ha        1 MOL      0.191620
    101 H45        -3.6860    8.7140    0.5290 ho        1 MOL      0.398685
    102 N10         3.2590    3.0020   -0.9730 n         1 MOL     -0.601561
    103 C34         4.3930    2.2050   -1.4860 c3        1 MOL      0.132108
    104 C35         5.4890    2.0000   -0.3760 c         1 MOL      0.683030
    105 O15         5.9550    0.9020   -0.0610 o         1 MOL     -0.515170
    106 C36         4.9340    2.8100   -2.8250 c3        1 MOL      0.014085
    107 C37         3.8450    2.8180   -3.9880 c3        1 MOL      0.178389
    108 C38         6.1770    2.0280   -3.1880 c3        1 MOL     -0.381010
    109 C39         3.5060    1.4910   -4.7780 c3        1 MOL     -0.124444
    110 H46         3.5210    3.9420   -0.7330 hn        1 MOL      0.272047
    111 H47         3.9970    1.2020   -1.6440 h1        1 MOL      0.024517
    112 H48         5.1720    3.8420   -2.5780 hc        1 MOL      0.001590
    113 H49         4.1150    3.5980   -4.6990 hc        1 MOL     -0.029750
    114 H50         2.8640    3.1710   -3.6550 hc        1 MOL     -0.029750
    115 H51         6.9140    2.2380   -2.4170 hc        1 MOL      0.106717
    116 H52         5.9290    0.9630   -3.1330 hc        1 MOL      0.106717
    117 H53         6.5930    2.2510   -4.1680 hc        1 MOL      0.106717
    118 H54         2.8310    1.7030   -5.6140 hc        1 MOL      0.035737
    119 H55         4.4010    1.0820   -5.2420 hc        1 MOL      0.035737
    120 H56         2.9430    0.8330   -4.1240 hc        1 MOL      0.035737
    121 N11         5.7990    3.1040    0.4040 n         1 MOL     -0.548460
    122 C40         6.6310    3.0260    1.5930 c3        1 MOL     -0.174793
    123 C41         8.0350    2.2970    1.3900 c         1 MOL      0.528573
    124 O16         8.5400    1.7430    2.3320 o         1 MOL     -0.464970
    125 C42         6.7150    4.4890    2.1540 c3        1 MOL      0.141388
    126 O17         5.4150    4.9880    2.2790 oh        1 MOL     -0.583455
    127 H57         5.4270    4.0140    0.1710 hn        1 MOL      0.349428
    128 H58         6.1600    2.3850    2.3390 h1        1 MOL      0.161484
    129 H59         7.2030    5.1980    1.4800 h1        1 MOL      0.077274
    130 H60         7.2390    4.4380    3.1020 h1        1 MOL      0.077274
    131 H61         4.9160    4.4620    2.9150 ho        1 MOL      0.409381
    132 N12         8.6370    2.3460    0.1570 n         1 MOL     -0.527431
    133 C43         9.8650    1.6760   -0.1670 c3        1 MOL      0.246712
    134 C44         9.8890    0.2010    0.2470 c         1 MOL      0.482354
    135 O18        10.9470   -0.3740    0.6370 o         1 MOL     -0.527489
    136 C45        11.0540    2.5440    0.3400 c3        1 MOL     -0.350315
    137 H62         8.0820    2.6530   -0.6220 hn        1 MOL      0.284080
    138 H63         9.9510    1.6170   -1.2460 h1        1 MOL      0.051306
    139 H64        11.9960    2.0300    0.1340 hc        1 MOL      0.101377
    140 H65        11.0990    3.5040   -0.1700 hc        1 MOL      0.101377
    141 H66        10.9880    2.7110    1.4180 hc        1 MOL      0.101377
    142 N13         8.7510   -0.4920    0.1450 n         1 MOL     -0.583249
    143 C46         8.5000   -1.9330    0.4030 c3        1 MOL      0.456361
    144 C47         7.5190   -2.5440   -0.6420 c         1 MOL      0.318557
    145 O19         6.7710   -1.8210   -1.3460 o         1 MOL     -0.425201
    146 C48         7.9600   -1.9280    1.7940 c3        1 MOL     -0.477920
    147 H67         7.9730    0.1490    0.0930 hn        1 MOL      0.241788
    148 H68         9.4820   -2.4110    0.3850 h1        1 MOL     -0.012205
    149 H69         7.7320   -2.9120    2.1970 hc        1 MOL      0.139879
    150 H70         8.6270   -1.4740    2.5360 hc        1 MOL      0.139879
    151 H71         7.0830   -1.2890    1.7130 hc        1 MOL      0.139879
    152 N14         7.5260   -3.8740   -0.6810 n         1 MOL     -0.394441
    153 C49         6.7070   -4.7100   -1.5910 c3        1 MOL     -0.134807
    154 C50         6.8990   -4.2720   -3.0960 c         1 MOL      0.434825
    155 O20         5.9760   -4.2560   -3.9460 o         1 MOL     -0.498012
    156 C51         5.1920   -4.7050   -1.2690 c3        1 MOL      0.256208
    157 C52         4.7190   -4.6720    0.1850 c3        1 MOL     -0.057619
    158 C53         3.2740   -4.1520    0.2920 c         1 MOL      0.664559
    159 O21         2.9860   -3.0890    0.8840 o         1 MOL     -0.766074
    160 O22         2.3590   -4.7990   -0.2370 o         1 MOL     -0.766074
    161 H72         8.0100   -4.2800    0.1120 hn        1 MOL      0.283972
    162 H73         7.0790   -5.7180   -1.4060 h1        1 MOL      0.087975
    163 H74         4.8010   -5.6170   -1.7260 hc        1 MOL     -0.027828
    164 H75         4.6870   -3.8400   -1.6840 hc        1 MOL     -0.027828
    165 H76         5.3670   -4.2080    0.9400 hc        1 MOL     -0.010942
    166 H77         4.8440   -5.6860    0.5660 hc        1 MOL     -0.010942
    167 N15         8.1470   -4.1160   -3.4210 n         1 MOL     -0.293224
    168 C54         8.5490   -3.5690   -4.7560 c3        1 MOL     -0.043790
    169 H78         7.8610   -3.9320   -5.5190 h1        1 MOL      0.068277
    170 H79         8.5180   -2.4790   -4.7270 h1        1 MOL      0.068277
    171 H80         9.5610   -3.8970   -4.9950 h1        1 MOL      0.068277
    172 H81         8.7550   -4.1240   -2.6180 hn        1 MOL      0.221768
    173 Ca1         0.6000   -2.8360    0.2370 Ca        1 MOL      1.733295
    174 O23         1.8550   -2.3810   -2.0810 oh        1 MOL     -0.727681
    175 H82         2.2520   -1.5320   -1.8810 ho        1 MOL      0.376921
    176 H83         2.3530   -2.7010   -2.8420 ho        1 MOL      0.376921
    177 O24        -0.3250   -4.7110    1.6960 oh        1 MOL     -0.727681
    178 H84        -0.3220   -4.6890    2.6520 ho        1 MOL      0.376921
    179 H85        -1.1340   -5.1490    1.4620 ho        1 MOL      0.376921
    180 O25        -0.4590   -4.6020   -1.6230 oh        1 MOL     -0.727681
    181 H86        -1.1430   -4.0320   -1.9940 ho        1 MOL      0.376921
    182 H87        -0.2690   -5.2320   -2.3250 ho        1 MOL      0.376921
    183 O26         0.8740   -0.1500   -0.0730 oh        1 MOL     -0.727681
    184 H88         1.1000    0.4220   -0.8020 ho        1 MOL      0.376921
    185 H89         1.4440    0.1450    0.6390 ho        1 MOL      0.376921
@<TRIPOS>BOND
     1    1    2 1   
     2    1    4 1   
     3    1    5 1   
     4    1    6 1   
     5    2    3 2   
     6    2    7 1   
     7    7    8 1   
     8    7   15 1   
     9    8    9 1   
    10    8   11 1   
    11    8   16 1   
    12    9   10 2   
    13    9   19 1   
    14   11   12 1   
    15   11   17 1   
    16   11   18 1   
    17   12   13 1   
    18   12   14 1   
    19   19   20 1   
    20   19   28 1   
    21   20   21 1   
    22   20   23 1   
    23   20   29 1   
    24   21   22 2   
    25   21   41 1   
    26   23   24 1   
    27   23   30 1   
    28   23   31 1   
    29   24   25 1   
    30   24   32 1   
    31   24   33 1   
    32   25   26 1   
    33   25   34 1   
    34   25   35 1   
    35   26   27 1   
    36   26   36 1   
    37   26   37 1   
    38   27   38 1   
    39   27   39 1   
    40   27   40 1   
    41   41   42 1   
    42   41   49 1   
    43   42   43 1   
    44   42   45 1   
    45   42   50 1   
    46   43   44 2   
    47   43   53 1   
    48   45   46 1   
    49   45   51 1   
    50   45   52 1   
    51   46   47 1   
    52   46   48 1   
    53   53   54 1   
    54   53   57 1   
    55   54   55 1   
    56   54   58 1   
    57   54   59 1   
    58   55   56 2   
    59   55   60 1   
    60   60   61 1   
    61   60   68 1   
    62   61   62 1   
    63   61   64 1   
    64   61   69 1   
    65   62   63 2   
    66   62   74 1   
    67   64   65 1   
    68   64   70 1   
    69   64   71 1   
    70   65   66 1   
    71   65   67 2   
    72   66   72 1   
    73   66   73 1   
    74   74   75 1   
    75   74   78 1   
    76   75   76 1   
    77   75   79 1   
    78   75   80 1   
    79   76   77 2   
    80   76   81 1   
    81   81   82 1   
    82   81   93 1   
    83   82   83 1   
    84   82   85 1   
    85   82   94 1   
    86   83   84 2   
    87   83  102 1   
    88   85   86 1   
    89   85   95 1   
    90   85   96 1   
    91   86   87 ar  
    92   86   88 ar  
    93   87   89 ar  
    94   87   97 1   
    95   88   90 ar  
    96   88   98 1   
    97   89   91 ar  
    98   89   99 1   
    99   90   91 ar  
   100   90  100 1   
   101   91   92 1   
   102   92  101 1   
   103  102  103 1   
   104  102  110 1   
   105  103  104 1   
   106  103  106 1   
   107  103  111 1   
   108  104  105 2   
   109  104  121 1   
   110  106  107 1   
   111  106  108 1   
   112  106  112 1   
   113  107  109 1   
   114  107  113 1   
   115  107  114 1   
   116  108  115 1   
   117  108  116 1   
   118  108  117 1   
   119  109  118 1   
   120  109  119 1   
   121  109  120 1   
   122  121  122 1   
   123  121  127 1   
   124  122  123 1   
   125  122  125 1   
   126  122  128 1   
   127  123  124 2   
   128  123  132 1   
   129  125  126 1   
   130  125  129 1   
   131  125  130 1   
   132  126  131 1   
   133  132  133 1   
   134  132  137 1   
   135  133  134 1   
   136  133  136 1   
   137  133  138 1   
   138  134  135 2   
   139  134  142 1   
   140  136  139 1   
   141  136  140 1   
   142  136  141 1   
   143  142  143 1   
   144  142  147 1   
   145  143  144 1   
   146  143  146 1   
   147  143  148 1   
   148  144  145 2   
   149  144  152 1   
   150  146  149 1   
   151  146  150 1   
   152  146  151 1   
   153  152  153 1   
   154  152  161 1   
   155  153  154 1   
   156  153  156 1   
   157  153  162 1   
   158  154  155 2   
   159  154  167 1   
   160  156  157 1   
   161  156  163 1   
   162  156  164 1   
   163  157  158 1   
   164  157  165 1   
   165  157  166 1   
   166  158  159 1   
   167  158  160 1   
   168  167  168 1   
   169  167  172 1   
   170  168  169 1   
   171  168  170 1   
   172  168  171 1   
   173  174  175 1   
   174  174  176 1   
   175  177  178 1   
   176  177  179 1   
   177  180  181 1   
   178  180  182 1   
   179  183  184 1   
   180  183  185 1   
@<TRIPOS>SUBSTRUCTURE
     1 MOL         1 TEMP              0 ****  ****    0 ROOT
