@<TRIPOS>MOLECULE
MOL
  181   177     1     0     0
SMALL
resp


@<TRIPOS>ATOM
      1 C1          4.7920   -6.4560    4.1300 c3        1 MOL     -0.260910
      2 C2          4.0290   -5.3690    3.3360 c         1 MOL      0.686964
      3 O1          2.8450   -5.1270    3.5640 o         1 MOL     -0.571133
      4 H1          4.6350   -6.3020    5.1980 hc        1 MOL      0.052852
      5 H2          4.4210   -7.4410    3.8470 hc        1 MOL      0.052852
      6 H3          5.8570   -6.3900    3.9080 hc        1 MOL      0.052852
      7 N1          4.5700   -4.7170    2.3200 n         1 MOL     -0.595359
      8 C3          5.9080   -4.8990    1.7750 c3        1 MOL      0.176768
      9 C4          5.8780   -4.8450    0.2770 c         1 MOL      0.453440
     10 O2          4.7920   -4.8180   -0.3030 o         1 MOL     -0.425879
     11 C5          6.8550   -3.7860    2.2180 c3        1 MOL     -0.171790
     12 C6          6.3230   -2.4210    1.8120 c         1 MOL      0.668543
     13 O3          5.4630   -1.8250    2.4940 o         1 MOL     -0.661446
     14 O4          6.7490   -1.7900    0.8290 o         1 MOL     -0.661446
     15 H4          3.9500   -4.0270    1.9280 hn        1 MOL      0.414416
     16 H5          6.3490   -5.8690    2.0520 h1        1 MOL      0.048658
     17 H6          7.8860   -3.9710    1.9250 hc        1 MOL      0.002281
     18 H7          6.9340   -3.8060    3.3070 hc        1 MOL      0.002281
     19 N2          7.0240   -4.8110   -0.4200 n         1 MOL     -0.561886
     20 C7          7.1710   -4.8200   -1.8770 c3        1 MOL      0.392076
     21 C8          6.2900   -3.7970   -2.5920 c         1 MOL      0.176297
     22 O5          5.8130   -4.0700   -3.6940 o         1 MOL     -0.462222
     23 C9          6.7980   -6.2320   -2.4840 c3        1 MOL     -0.469462
     24 H8          7.8760   -4.7960    0.1340 hn        1 MOL      0.278675
     25 H9          8.2220   -4.5690   -2.0420 h1        1 MOL     -0.006303
     26 H10         7.1140   -6.2170   -3.5240 hc        1 MOL      0.127651
     27 H11         7.3320   -7.0040   -1.9280 hc        1 MOL      0.127651
     28 H12         5.7260   -6.4520   -2.4210 hc        1 MOL      0.127651
     29 N3          6.0640   -2.6020   -1.9630 n         1 MOL      0.108981
     30 C10         5.4100   -1.4410   -2.5910 c3        1 MOL     -0.221193
     31 C11         6.0780   -0.0380   -2.2410 c         1 MOL      0.378041
     32 O6          6.5150    0.1440   -1.0720 o         1 MOL     -0.486952
     33 C12         3.8850   -1.4630   -2.3370 c3        1 MOL     -0.183300
     34 C13         3.3130   -1.3550   -0.9080 c         1 MOL      0.650218
     35 O7          2.3150   -1.9930   -0.4530 o         1 MOL     -0.653701
     36 O8          3.8060   -0.4420   -0.2250 o         1 MOL     -0.653701
     37 H13         6.5560   -2.3770   -1.1090 hn        1 MOL      0.045803
     38 H14         5.5850   -1.4700   -3.6620 h1        1 MOL      0.044847
     39 H15         3.5920   -2.4780   -2.6120 hc        1 MOL      0.103152
     40 H16         3.3210   -0.8130   -3.0070 hc        1 MOL      0.103152
     41 N4          6.0350    0.8860   -3.1950 n         1 MOL     -0.159489
     42 C14         6.9200    2.0780   -3.2570 c3        1 MOL     -0.494255
     43 C15         6.5630    3.3470   -2.4940 c         1 MOL      0.694186
     44 O9          7.3080    4.3250   -2.3710 o         1 MOL     -0.587518
     45 H17         5.5030    0.6430   -4.0200 hn        1 MOL      0.280749
     46 H18         7.1630    2.3040   -4.2940 h1        1 MOL      0.187443
     47 H19         7.8910    1.7560   -2.8990 h1        1 MOL      0.187443
     48 N5          5.3150    3.3790   -2.1050 n         1 MOL     -0.430435
     49 C16         4.6680    4.3710   -1.2630 c3        1 MOL      0.199374
     50 C17         3.9410    3.8290   -0.0000 c         1 MOL      0.704438
     51 O10         4.0130    2.6680    0.3670 o         1 MOL     -0.640277
     52 C18         3.8530    5.2610   -2.2010 c3        1 MOL     -0.095502
     53 C19         3.6220    6.6320   -1.6550 c         1 MOL      0.735487
     54 N6          2.6330    7.3230   -2.1630 n         1 MOL     -0.825473
     55 O11         4.2660    7.1550   -0.7390 o         1 MOL     -0.619794
     56 H20         4.7960    2.5220   -2.2490 hn        1 MOL      0.195988
     57 H21         5.4960    4.9450   -0.8420 h1        1 MOL     -0.007995
     58 H22         2.8740    4.8460   -2.4260 hc        1 MOL      0.036561
     59 H23         4.4540    5.4420   -3.0930 hc        1 MOL      0.036561
     60 H24         2.0490    7.0890   -2.9530 hn        1 MOL      0.371905
     61 H25         2.4500    8.1530   -1.6160 hn        1 MOL      0.371905
     62 N7          3.2240    4.7210    0.7240 n         1 MOL     -0.585959
     63 C20         2.6620    4.5000    2.0630 c3        1 MOL     -0.104487
     64 C21         1.6010    3.3400    2.0500 c         1 MOL      0.353436
     65 O12         1.8850    2.2440    2.5150 o         1 MOL     -0.396766
     66 H26         2.9300    5.6010    0.3170 hn        1 MOL      0.339573
     67 H27         2.1250    5.4130    2.2960 h1        1 MOL      0.122210
     68 H28         3.4360    4.2300    2.7860 h1        1 MOL      0.122210
     69 N8          0.3600    3.3690    1.4980 n         1 MOL     -0.427034
     70 C22        -0.1550    4.2880    0.3970 c3        1 MOL      0.101142
     71 C23        -1.5500    4.8660    0.6980 c         1 MOL      0.374855
     72 O13        -1.8010    6.0570    0.5560 o         1 MOL     -0.525735
     73 C24        -0.1900    3.5400   -0.8900 c3        1 MOL      0.158239
     74 C25        -0.2970    4.5030   -2.0820 c3        1 MOL     -0.465365
     75 O14         0.9910    2.8340   -1.1970 oh        1 MOL     -0.505282
     76 H29        -0.1870    2.5350    1.6860 hn        1 MOL      0.289521
     77 H30         0.5690    5.0900    0.2610 h1        1 MOL      0.030341
     78 H31        -1.0610    2.8820   -0.9120 h1        1 MOL      0.073417
     79 H32         0.9860    2.0490   -0.6450 ho        1 MOL      0.395289
     80 H33        -1.1480    5.1840   -1.9920 hc        1 MOL      0.130462
     81 H34         0.6780    4.9820   -2.1990 hc        1 MOL      0.130462
     82 H35        -0.4290    3.8750   -2.9540 hc        1 MOL      0.130462
     83 N9         -2.4290    3.9640    1.1530 n         1 MOL      0.036918
     84 C26        -3.8550    4.1700    1.4730 c3        1 MOL     -0.039985
     85 C27        -4.7810    4.7710    0.4430 c         1 MOL      0.583177
     86 O15        -5.0680    5.9280    0.4730 o         1 MOL     -0.529952
     87 C28        -3.8780    4.8630    2.8770 c3        1 MOL      0.120255
     88 C29        -2.8450    4.3910    3.9520 c3        1 MOL      0.048782
     89 C30        -5.2890    4.9270    3.5050 c3        1 MOL     -0.244968
     90 C31        -3.0880    3.0350    4.5490 c3        1 MOL     -0.174391
     91 H36        -2.0290    3.0380    1.1490 hn        1 MOL      0.111691
     92 H37        -4.2240    3.1630    1.6850 h1        1 MOL      0.056836
     93 H38        -3.5010    5.8530    2.6070 hc        1 MOL     -0.004773
     94 H39        -2.7990    5.1400    4.7370 hc        1 MOL     -0.038513
     95 H40        -1.8740    4.4070    3.4470 hc        1 MOL     -0.038513
     96 H41        -5.9260    5.4540    2.7970 hc        1 MOL      0.053570
     97 H42        -5.6970    3.9700    3.8210 hc        1 MOL      0.053570
     98 H43        -5.3230    5.5670    4.3870 hc        1 MOL      0.053570
     99 H44        -3.0230    2.3060    3.7450 hc        1 MOL      0.040858
    100 H45        -2.3750    2.7620    5.3340 hc        1 MOL      0.040858
    101 H46        -4.0790    2.8860    4.9810 hc        1 MOL      0.040858
    102 N10        -5.1840    3.9800   -0.5950 n         1 MOL     -0.540127
    103 C32        -4.6220    2.7230   -1.0120 c3        1 MOL      0.442076
    104 C33        -5.2720    1.4930   -0.2750 c         1 MOL      0.238949
    105 O16        -4.6450    0.7690    0.5230 o         1 MOL     -0.535641
    106 C34        -4.7600    2.5350   -2.5280 c3        1 MOL     -0.279780
    107 C35        -6.1990    2.6000   -3.0570 c         1 MOL      0.668141
    108 O17        -6.4360    2.2700   -4.2450 o         1 MOL     -0.654161
    109 O18        -7.1610    3.0740   -2.3330 o         1 MOL     -0.654161
    110 H47        -6.0190    4.2300   -1.1010 hn        1 MOL      0.260059
    111 H48        -3.5540    2.7570   -0.7800 h1        1 MOL     -0.120452
    112 H49        -4.4030    1.5410   -2.7960 hc        1 MOL      0.075856
    113 H50        -4.0810    3.2600   -2.9820 hc        1 MOL      0.075856
    114 N11        -6.5600    1.1940   -0.4170 n         1 MOL     -0.352954
    115 C36        -7.2040   -0.1290   -0.1100 c3        1 MOL      0.565307
    116 C37        -7.6380   -0.8120   -1.4570 c         1 MOL      0.346589
    117 O19        -8.1700   -0.1790   -2.3510 o         1 MOL     -0.470522
    118 C38        -8.4350    0.1410    0.7460 c3        1 MOL     -0.473452
    119 C39        -9.2300   -1.0480    1.0970 ca        1 MOL      0.276727
    120 C40       -10.3640   -1.3870    0.3120 ca        1 MOL     -0.269892
    121 C41        -8.9020   -1.8880    2.2140 ca        1 MOL     -0.269892
    122 C42       -11.1370   -2.4890    0.6260 ca        1 MOL     -0.011934
    123 C43        -9.6840   -3.0110    2.5000 ca        1 MOL     -0.011934
    124 C44       -10.7900   -3.2250    1.7530 ca        1 MOL     -0.237003
    125 H51        -7.0590    1.7820   -1.0710 hn        1 MOL      0.154630
    126 H52        -6.4860   -0.6880    0.4970 h1        1 MOL     -0.052630
    127 H53        -8.9620    0.8360    0.1010 hc        1 MOL      0.119133
    128 H54        -8.1750    0.6470    1.6740 hc        1 MOL      0.119133
    129 H55       -10.6500   -0.8330   -0.5710 ha        1 MOL      0.132760
    130 H56        -8.0110   -1.7360    2.8100 ha        1 MOL      0.132760
    131 H57       -11.9660   -2.7510   -0.0050 ha        1 MOL      0.088858
    132 H58        -9.4640   -3.6460    3.3510 ha        1 MOL      0.088858
    133 H59       -11.4190   -4.0820    1.9250 ha        1 MOL      0.096846
    134 N12        -7.4500   -2.1660   -1.5880 n         1 MOL     -0.059438
    135 C45        -6.8000   -3.1440   -0.7010 c3        1 MOL     -0.006682
    136 C46        -5.2840   -2.9440   -0.6170 c         1 MOL      0.726909
    137 O20        -4.8240   -1.9520   -1.0910 o         1 MOL     -0.504647
    138 C47        -7.0200   -4.4560   -1.3730 c3        1 MOL     -0.290248
    139 C48        -6.9580   -4.1720   -2.8900 c3        1 MOL      0.104648
    140 C49        -7.5810   -2.7780   -2.8800 c3        1 MOL      0.025042
    141 H60        -7.2240   -3.1560    0.3000 h1        1 MOL     -0.012332
    142 H61        -6.3300   -5.2590   -1.1410 hc        1 MOL      0.065924
    143 H62        -8.0340   -4.7540   -1.1230 hc        1 MOL      0.065924
    144 H63        -5.9470   -4.1730   -3.2920 hc        1 MOL     -0.003569
    145 H64        -7.5800   -4.7930   -3.5360 hc        1 MOL     -0.003569
    146 H65        -7.1170   -2.0800   -3.5860 h1        1 MOL      0.020507
    147 H66        -8.6510   -2.8030   -3.0900 h1        1 MOL      0.020507
    148 N13        -4.5030   -3.8310    0.0620 n         1 MOL     -0.635461
    149 C50        -3.0870   -3.5150    0.3640 c3        1 MOL     -0.029739
    150 C51        -2.5650   -4.2470    1.6520 c         1 MOL      0.525075
    151 O21        -1.4840   -4.8640    1.7410 o         1 MOL     -0.531456
    152 C52        -2.2620   -3.7780   -0.8990 c3        1 MOL      0.136725
    153 C53        -2.2380   -5.1920   -1.5240 c3        1 MOL     -0.048464
    154 C54        -1.3670   -5.0610   -2.8140 c         1 MOL      0.652920
    155 O22        -1.8820   -5.4320   -3.9170 o         1 MOL     -0.666990
    156 O23        -0.2230   -4.4800   -2.6950 o         1 MOL     -0.666990
    157 H67        -4.7850   -4.8050    0.0890 hn        1 MOL      0.326324
    158 H68        -3.0880   -2.4480    0.6080 h1        1 MOL      0.094911
    159 H69        -1.2480   -3.6160   -0.5370 hc        1 MOL      0.027430
    160 H70        -2.4490   -3.0090   -1.6490 hc        1 MOL      0.027430
    161 H71        -3.2420   -5.5400   -1.7740 hc        1 MOL     -0.039107
    162 H72        -1.8180   -5.9570   -0.8720 hc        1 MOL     -0.039107
    163 N14        -3.2280   -4.2650    2.7870 n         1 MOL     -0.383430
    164 C55        -4.3610   -3.4000    3.1650 c3        1 MOL     -0.046530
    165 H73        -5.2970   -3.9210    2.9640 h1        1 MOL      0.044843
    166 H74        -4.2990   -3.1620    4.2260 h1        1 MOL      0.044843
    167 H75        -4.3260   -2.4790    2.5830 h1        1 MOL      0.044843
    168 H76        -2.8480   -4.7680    3.5800 hn        1 MOL      0.273327
    169 Ca1         5.5580    0.6120    1.3800 Ca        1 MOL      1.779493
    170 O24         3.6850    0.2330    3.2530 oh        1 MOL     -0.836826
    171 H77         3.3910   -0.5010    3.8060 ho        1 MOL      0.384735
    172 H78         3.2640    0.9980    3.6260 ho        1 MOL      0.384735
    173 O25         7.4780    2.3000    0.7870 oh        1 MOL     -0.836826
    174 H79         7.3520    2.9520    1.4800 ho        1 MOL      0.384735
    175 H80         8.3580    2.4670    0.4610 ho        1 MOL      0.384735
    176 O26         7.7810    0.5520    2.9340 oh        1 MOL     -0.836826
    177 H81         8.4320    1.2490    2.8140 ho        1 MOL      0.384735
    178 H82         8.1310    0.0260    3.6540 ho        1 MOL      0.384735
    179 O27         5.4680    2.6050    3.2470 oh        1 MOL     -0.836826
    180 H83         5.9800    3.4110    3.3520 ho        1 MOL      0.384735
    181 H84         5.2250    2.3560    4.1300 ho        1 MOL      0.384735
@<TRIPOS>BOND
     1    1    2 1   
     2    1    4 1   
     3    1    5 1   
     4    1    6 1   
     5    2    3 2   
     6    2    7 1   
     7    7    8 1   
     8    7   15 1   
     9    8    9 1   
    10    8   11 1   
    11    8   16 1   
    12    9   10 2   
    13    9   19 1   
    14   11   12 1   
    15   11   17 1   
    16   11   18 1   
    17   12   13 1   
    18   12   14 1   
    19   19   20 1   
    20   19   24 1   
    21   20   21 1   
    22   20   23 1   
    23   20   25 1   
    24   21   22 2   
    25   21   29 1   
    26   23   26 1   
    27   23   27 1   
    28   23   28 1   
    29   29   30 1   
    30   29   37 1   
    31   30   31 1   
    32   30   33 1   
    33   30   38 1   
    34   31   32 2   
    35   31   41 1   
    36   33   34 1   
    37   33   39 1   
    38   33   40 1   
    39   34   35 1   
    40   34   36 1   
    41   41   42 1   
    42   41   45 1   
    43   42   43 1   
    44   42   46 1   
    45   42   47 1   
    46   43   44 2   
    47   43   48 1   
    48   48   49 1   
    49   48   56 1   
    50   49   50 1   
    51   49   52 1   
    52   49   57 1   
    53   50   51 2   
    54   50   62 1   
    55   52   53 1   
    56   52   58 1   
    57   52   59 1   
    58   53   54 1   
    59   53   55 2   
    60   54   60 1   
    61   54   61 1   
    62   62   63 1   
    63   62   66 1   
    64   63   64 1   
    65   63   67 1   
    66   63   68 1   
    67   64   65 2   
    68   64   69 1   
    69   69   70 1   
    70   69   76 1   
    71   70   71 1   
    72   70   73 1   
    73   70   77 1   
    74   71   72 2   
    75   71   83 1   
    76   73   74 1   
    77   73   75 1   
    78   73   78 1   
    79   74   80 1   
    80   74   81 1   
    81   74   82 1   
    82   75   79 1   
    83   83   84 1   
    84   83   91 1   
    85   84   85 1   
    86   84   87 1   
    87   84   92 1   
    88   85   86 2   
    89   85  102 1   
    90   87   88 1   
    91   87   89 1   
    92   87   93 1   
    93   88   90 1   
    94   88   94 1   
    95   88   95 1   
    96   89   96 1   
    97   89   97 1   
    98   89   98 1   
    99   90   99 1   
   100   90  100 1   
   101   90  101 1   
   102  102  103 1   
   103  102  110 1   
   104  103  104 1   
   105  103  106 1   
   106  103  111 1   
   107  104  105 2   
   108  104  114 1   
   109  106  107 1   
   110  106  112 1   
   111  106  113 1   
   112  107  108 1   
   113  107  109 1   
   114  114  115 1   
   115  114  125 1   
   116  115  116 1   
   117  115  118 1   
   118  115  126 1   
   119  116  117 2   
   120  116  134 1   
   121  118  119 1   
   122  118  127 1   
   123  118  128 1   
   124  119  120 ar  
   125  119  121 ar  
   126  120  122 ar  
   127  120  129 1   
   128  121  123 ar  
   129  121  130 1   
   130  122  124 ar  
   131  122  131 1   
   132  123  124 ar  
   133  123  132 1   
   134  124  133 1   
   135  134  135 1   
   136  134  140 1   
   137  135  136 1   
   138  135  138 1   
   139  135  141 1   
   140  136  137 2   
   141  136  148 1   
   142  138  139 1   
   143  138  142 1   
   144  138  143 1   
   145  139  140 1   
   146  139  144 1   
   147  139  145 1   
   148  140  146 1   
   149  140  147 1   
   150  148  149 1   
   151  148  157 1   
   152  149  150 1   
   153  149  152 1   
   154  149  158 1   
   155  150  151 2   
   156  150  163 1   
   157  152  153 1   
   158  152  159 1   
   159  152  160 1   
   160  153  154 1   
   161  153  161 1   
   162  153  162 1   
   163  154  155 1   
   164  154  156 1   
   165  163  164 1   
   166  163  168 1   
   167  164  165 1   
   168  164  166 1   
   169  164  167 1   
   170  170  171 1   
   171  170  172 1   
   172  173  174 1   
   173  173  175 1   
   174  176  177 1   
   175  176  178 1   
   176  179  180 1   
   177  179  181 1   
@<TRIPOS>SUBSTRUCTURE
     1 MOL         1 TEMP              0 ****  ****    0 ROOT
