@<TRIPOS>MOLECULE
MOL
  181   177     1     0     0
SMALL
resp


@<TRIPOS>ATOM
      1 C1          3.0870   -2.8860    4.1320 c3        1 MOL     -0.342787
      2 C2          4.4200   -2.1910    3.6500 c         1 MOL      0.688552
      3 O1          4.5850   -0.9480    3.7750 o         1 MOL     -0.612357
      4 H1          2.7730   -3.6210    3.3900 hc        1 MOL      0.077402
      5 H2          3.2600   -3.3840    5.0850 hc        1 MOL      0.077402
      6 H3          2.3070   -2.1340    4.2500 hc        1 MOL      0.077402
      7 N1          5.4220   -3.0300    3.3030 n         1 MOL     -0.683394
      8 C3          6.7020   -2.5960    2.7870 c3        1 MOL      0.417084
      9 C4          6.6850   -2.2980    1.2750 c         1 MOL      0.726887
     10 O2          5.9380   -2.9490    0.5070 o         1 MOL     -0.602587
     11 C5          7.8750   -3.5200    3.1630 c3        1 MOL     -0.349915
     12 C6          7.7820   -4.8840    2.5070 c         1 MOL      0.733879
     13 O3          6.6720   -5.4050    2.3490 o         1 MOL     -0.725056
     14 O4          8.8250   -5.4520    2.1350 o         1 MOL     -0.725056
     15 H4          5.1170   -3.9680    3.1290 hn        1 MOL      0.359774
     16 H5          6.9120   -1.6670    3.3080 h1        1 MOL     -0.025218
     17 H6          7.7880   -3.7110    4.2270 hc        1 MOL      0.040030
     18 H7          8.8640   -3.0630    3.0290 hc        1 MOL      0.040030
     19 N2          7.2890   -1.1370    0.9380 n         1 MOL     -0.883283
     20 C7          7.2710   -0.5810   -0.4410 c3        1 MOL      0.677415
     21 C8          6.2180    0.4190   -0.7040 c         1 MOL      0.555833
     22 O5          6.0650    1.2890    0.0990 o         1 MOL     -0.586043
     23 C9          8.7260   -0.2020   -0.8550 c3        1 MOL     -0.506511
     24 H8          7.6650   -0.5170    1.6390 hn        1 MOL      0.349882
     25 H9          7.0900   -1.4630   -1.0670 h1        1 MOL     -0.047384
     26 H10         9.0370    0.4050    0.0040 hc        1 MOL      0.116214
     27 H11         9.2050   -1.1770   -0.8310 hc        1 MOL      0.116214
     28 H12         8.7810    0.1760   -1.8740 hc        1 MOL      0.116214
     29 N3          5.6190    0.2660   -1.8560 n         1 MOL     -0.691288
     30 C10         4.5170    1.0880   -2.3580 c3        1 MOL     -0.062541
     31 C11         5.0150    2.4470   -2.9430 c         1 MOL      0.754791
     32 O6          6.0330    2.4760   -3.5850 o         1 MOL     -0.552788
     33 C12         3.8500    0.3830   -3.5300 c3        1 MOL     -0.083765
     34 C13         3.6310   -1.1140   -3.4680 c         1 MOL      0.801506
     35 O7          2.4970   -1.5610   -3.1980 o         1 MOL     -0.766345
     36 O8          4.6160   -1.8930   -3.6290 o         1 MOL     -0.766345
     37 H13         5.9380   -0.4090   -2.5450 hn        1 MOL      0.344162
     38 H14         3.7830    1.1470   -1.5570 h1        1 MOL      0.132032
     39 H15         4.3990    0.5600   -4.4580 hc        1 MOL      0.006753
     40 H16         2.8960    0.8970   -3.6610 hc        1 MOL      0.006753
     41 N4          4.3520    3.5750   -2.6890 n         1 MOL     -0.490420
     42 C14         4.8520    4.9540   -3.0320 c3        1 MOL     -0.141344
     43 C15         3.7760    6.0560   -2.9360 c         1 MOL      0.584897
     44 O9          4.0880    7.1550   -3.3800 o         1 MOL     -0.553920
     45 H17         3.4170    3.4820   -2.2900 hn        1 MOL      0.178604
     46 H18         5.2790    4.7940   -4.0240 h1        1 MOL      0.124878
     47 H19         5.6920    5.1660   -2.3780 h1        1 MOL      0.124878
     48 N5          2.5360    5.8030   -2.5030 n         1 MOL     -0.519388
     49 C16         1.5190    6.8250   -2.4120 c3        1 MOL      0.135698
     50 C17         0.9980    7.0970   -0.9710 c         1 MOL      0.437268
     51 O10         0.2860    8.1160   -0.7580 o         1 MOL     -0.499846
     52 C18         0.5180    6.5560   -3.4980 c3        1 MOL     -0.047444
     53 C19         1.0450    6.3340   -4.9340 c         1 MOL      0.571494
     54 N6          1.0690    7.3710   -5.7860 n         1 MOL     -0.716144
     55 O11         1.3930    5.2320   -5.2280 o         1 MOL     -0.513740
     56 H20         2.3560    4.8700   -2.1590 hn        1 MOL      0.368254
     57 H21         1.8940    7.8100   -2.6730 h1        1 MOL      0.077568
     58 H22        -0.3280    7.2420   -3.5000 hc        1 MOL      0.015732
     59 H23         0.0980    5.6000   -3.1850 hc        1 MOL      0.015732
     60 H24         0.7710    8.2950   -5.5360 hn        1 MOL      0.343747
     61 H25         1.2860    7.0230   -6.7020 hn        1 MOL      0.343747
     62 N7          1.3010    6.2650    0.0730 n         1 MOL     -0.420420
     63 C20         0.8190    6.4610    1.4480 c3        1 MOL     -0.039129
     64 C21        -0.6770    6.1460    1.7650 c         1 MOL      0.527710
     65 O12        -1.5560    5.9140    0.8880 o         1 MOL     -0.463946
     66 H26         1.8790    5.4400   -0.0480 hn        1 MOL      0.285031
     67 H27         0.9680    7.5110    1.7160 h1        1 MOL      0.077546
     68 H28         1.3520    5.8230    2.1560 h1        1 MOL      0.077546
     69 N8         -0.9480    6.1340    3.0500 n         1 MOL     -0.285816
     70 C22        -2.3540    6.0090    3.5890 c3        1 MOL     -0.441473
     71 C23        -2.8960    4.5560    3.6020 c         1 MOL      0.618656
     72 O13        -4.0940    4.4030    3.4320 o         1 MOL     -0.541542
     73 C24        -2.6040    6.7060    4.9260 c3        1 MOL      0.571773
     74 C25        -1.7370    6.0540    6.0370 c3        1 MOL     -0.326879
     75 O14        -2.2360    8.0760    4.9490 oh        1 MOL     -0.652260
     76 H29        -0.3020    6.4730    3.7470 hn        1 MOL      0.190399
     77 H30        -3.0120    6.5920    2.9520 h1        1 MOL      0.169983
     78 H31        -3.6240    6.5670    5.2770 h1        1 MOL      0.018704
     79 H32        -1.3010    8.0390    4.7500 ho        1 MOL      0.392732
     80 H33        -0.8590    5.5030    5.6900 hc        1 MOL      0.073094
     81 H34        -1.3150    6.7960    6.7100 hc        1 MOL      0.073094
     82 H35        -2.4640    5.4480    6.5690 hc        1 MOL      0.073094
     83 N9         -1.9720    3.5920    3.7730 n         1 MOL     -0.370965
     84 C26        -2.1200    2.1590    3.6620 c3        1 MOL      0.176742
     85 C27        -1.6190    1.5290    2.3400 c         1 MOL      0.454306
     86 O15        -0.5520    1.9920    1.9290 o         1 MOL     -0.530214
     87 C28        -1.5250    1.4280    4.9370 c3        1 MOL      0.166459
     88 C29        -1.9540    2.0530    6.2810 c3        1 MOL     -0.068487
     89 C30        -1.9390   -0.1220    4.9360 c3        1 MOL     -0.173771
     90 C31        -3.4440    2.2350    6.5220 c3        1 MOL     -0.008523
     91 H36        -0.9870    3.8200    3.8810 hn        1 MOL      0.209196
     92 H37        -3.1510    1.8150    3.6640 h1        1 MOL     -0.009883
     93 H38        -0.4400    1.4440    4.9390 hc        1 MOL     -0.004315
     94 H39        -1.3960    2.9810    6.4240 hc        1 MOL      0.006843
     95 H40        -1.6700    1.3880    7.0980 hc        1 MOL      0.006843
     96 H41        -2.9770   -0.3130    4.6590 hc        1 MOL      0.046430
     97 H42        -1.3070   -0.6320    4.2130 hc        1 MOL      0.046430
     98 H43        -1.7880   -0.5850    5.9060 hc        1 MOL      0.046430
     99 H44        -3.8690    2.7160    5.6340 hc        1 MOL     -0.006758
    100 H45        -3.9910    1.3140    6.7320 hc        1 MOL     -0.006758
    101 H46        -3.4930    2.9450    7.3460 hc        1 MOL     -0.006758
    102 N10        -2.2490    0.4750    1.8730 n         1 MOL     -0.525083
    103 C32        -1.7090   -0.3840    0.8340 c3        1 MOL      0.445348
    104 C33        -2.8390   -0.6940   -0.2410 c         1 MOL      0.428569
    105 O16        -2.7280   -1.6920   -0.8960 o         1 MOL     -0.448637
    106 C34        -1.0430   -1.6760    1.3590 c3        1 MOL     -0.467120
    107 C35        -0.0570   -2.3560    0.4020 c         1 MOL      0.861277
    108 O17         0.3550   -1.7540   -0.6140 o         1 MOL     -0.750924
    109 O18         0.5040   -3.4510    0.6890 o         1 MOL     -0.750924
    110 H47        -3.0510    0.2300    2.4340 hn        1 MOL      0.269119
    111 H48        -0.9710    0.1520    0.2360 h1        1 MOL      0.027448
    112 H49        -1.7760   -2.4390    1.5660 hc        1 MOL      0.100457
    113 H50        -0.5260   -1.4290    2.2840 hc        1 MOL      0.100457
    114 N11        -3.8560    0.2200   -0.4710 n         1 MOL     -0.533286
    115 C36        -5.0220   -0.1550   -1.2410 c3        1 MOL      0.308622
    116 C37        -5.6040   -1.4830   -0.8260 c         1 MOL      0.080648
    117 O19        -5.7220   -1.7830    0.3890 o         1 MOL     -0.470049
    118 C38        -6.0440    0.9930   -0.9980 c3        1 MOL     -0.268483
    119 C39        -7.0790    1.1100   -2.0420 ca        1 MOL      0.117759
    120 C40        -8.3600    0.4920   -1.7420 ca        1 MOL     -0.182781
    121 C41        -6.9090    1.8130   -3.2390 ca        1 MOL     -0.182781
    122 C42        -9.3300    0.3530   -2.7260 ca        1 MOL     -0.089936
    123 C43        -7.9820    1.8430   -4.1920 ca        1 MOL     -0.089936
    124 C44        -9.0710    0.9140   -3.9830 ca        1 MOL     -0.165197
    125 H51        -3.7440    1.1320   -0.0450 hn        1 MOL      0.271690
    126 H52        -4.7710   -0.1820   -2.2980 h1        1 MOL      0.047096
    127 H53        -5.5530    1.9690   -0.9440 hc        1 MOL      0.116185
    128 H54        -6.4890    0.8860   -0.0100 hc        1 MOL      0.116185
    129 H55        -8.5020   -0.0030   -0.7970 ha        1 MOL      0.132149
    130 H56        -5.9780    2.3230   -3.4710 ha        1 MOL      0.132149
    131 H57       -10.1960   -0.2780   -2.5520 ha        1 MOL      0.111970
    132 H58        -7.8530    2.3420   -5.1380 ha        1 MOL      0.111970
    133 H59        -9.7200    0.7000   -4.8190 ha        1 MOL      0.111317
    134 N12        -6.1220   -2.3010   -1.7510 n         1 MOL      0.048285
    135 C45        -6.7820   -3.5980   -1.4580 c3        1 MOL      0.196654
    136 C46        -5.9500   -4.6320   -0.7030 c         1 MOL      0.239166
    137 O20        -6.4940   -5.6450   -0.3100 o         1 MOL     -0.527374
    138 C47        -7.1580   -4.0920   -2.8510 c3        1 MOL     -0.264468
    139 C48        -6.1360   -3.4380   -3.7500 c3        1 MOL      0.132748
    140 C49        -6.0680   -2.0620   -3.1550 c3        1 MOL     -0.377119
    141 H60        -7.6880   -3.5350   -0.8540 h1        1 MOL      0.038584
    142 H61        -7.0700   -5.1690   -2.8620 hc        1 MOL      0.085669
    143 H62        -8.1840   -3.7800   -3.0540 hc        1 MOL      0.085669
    144 H63        -5.1760   -3.9270   -3.5850 hc        1 MOL      0.012611
    145 H64        -6.3090   -3.4360   -4.8210 hc        1 MOL      0.012611
    146 H65        -5.0890   -1.6810   -3.4660 h1        1 MOL      0.139857
    147 H66        -6.9220   -1.4230   -3.4020 h1        1 MOL      0.139857
    148 N13        -4.6520   -4.5160   -0.4930 n         1 MOL      0.022299
    149 C50        -3.7890   -5.4900    0.1680 c3        1 MOL     -0.268333
    150 C51        -3.9870   -5.6330    1.6340 c         1 MOL      0.461595
    151 O21        -3.4780   -6.6260    2.2100 o         1 MOL     -0.550314
    152 C52        -2.3220   -5.2350   -0.2170 c3        1 MOL      0.332737
    153 C53        -2.0940   -5.5660   -1.6330 c3        1 MOL     -0.343957
    154 C54        -0.5360   -5.4040   -1.9020 c         1 MOL      0.761619
    155 O22        -0.1540   -4.8620   -2.9750 o         1 MOL     -0.772453
    156 O23         0.3720   -5.7750   -1.1560 o         1 MOL     -0.772453
    157 H67        -4.1480   -3.7780   -0.9620 hn        1 MOL      0.229180
    158 H68        -4.0070   -6.5220   -0.1120 h1        1 MOL      0.119150
    159 H69        -1.7300   -5.8140    0.4880 hc        1 MOL     -0.019518
    160 H70        -2.0430   -4.1950   -0.0350 hc        1 MOL     -0.019518
    161 H71        -2.7860   -4.9730   -2.2200 hc        1 MOL      0.052043
    162 H72        -2.4040   -6.6050   -1.7460 hc        1 MOL      0.052043
    163 N14        -4.6160   -4.6630    2.2880 n         1 MOL     -0.190182
    164 C55        -4.5610   -4.5030    3.7410 c3        1 MOL     -0.187418
    165 H73        -4.3180   -3.4690    3.9830 h1        1 MOL      0.085725
    166 H74        -5.5280   -4.7600    4.1720 h1        1 MOL      0.085725
    167 H75        -3.7940   -5.1610    4.1500 h1        1 MOL      0.085725
    168 H76        -4.8840   -3.8980    1.6820 hn        1 MOL      0.169407
    169 Ca1         1.9640   -3.6780   -1.6560 Ca        1 MOL      1.733964
    170 O24         3.5110   -2.0330   -0.1070 oh        1 MOL     -0.801846
    171 H77         3.6510   -1.0900   -0.0700 ho        1 MOL      0.402169
    172 H78         4.3940   -2.4050   -0.1160 ho        1 MOL      0.402169
    173 O25         3.6570   -5.5290   -1.2610 oh        1 MOL     -0.801846
    174 H79         4.4210   -6.0380   -1.4980 ho        1 MOL      0.402169
    175 H80         3.8520   -5.2020   -0.3820 ho        1 MOL      0.402169
    176 O26         2.7490   -4.5450   -4.0830 oh        1 MOL     -0.801846
    177 H81         2.2030   -5.1640   -4.5690 ho        1 MOL      0.402169
    178 H82         3.6380   -4.8970   -4.1600 ho        1 MOL      0.402169
    179 O27         2.8750   -4.5800    1.3740 oh        1 MOL     -0.801846
    180 H83         2.9360   -5.2080    2.0940 ho        1 MOL      0.402169
    181 H84         2.0020   -4.1960    1.4640 ho        1 MOL      0.402169
@<TRIPOS>BOND
     1    1    2 1   
     2    1    4 1   
     3    1    5 1   
     4    1    6 1   
     5    2    3 2   
     6    2    7 1   
     7    7    8 1   
     8    7   15 1   
     9    8    9 1   
    10    8   11 1   
    11    8   16 1   
    12    9   10 2   
    13    9   19 1   
    14   11   12 1   
    15   11   17 1   
    16   11   18 1   
    17   12   13 1   
    18   12   14 1   
    19   19   20 1   
    20   19   24 1   
    21   20   21 1   
    22   20   23 1   
    23   20   25 1   
    24   21   22 2   
    25   21   29 1   
    26   23   26 1   
    27   23   27 1   
    28   23   28 1   
    29   29   30 1   
    30   29   37 1   
    31   30   31 1   
    32   30   33 1   
    33   30   38 1   
    34   31   32 2   
    35   31   41 1   
    36   33   34 1   
    37   33   39 1   
    38   33   40 1   
    39   34   35 1   
    40   34   36 1   
    41   41   42 1   
    42   41   45 1   
    43   42   43 1   
    44   42   46 1   
    45   42   47 1   
    46   43   44 2   
    47   43   48 1   
    48   48   49 1   
    49   48   56 1   
    50   49   50 1   
    51   49   52 1   
    52   49   57 1   
    53   50   51 2   
    54   50   62 1   
    55   52   53 1   
    56   52   58 1   
    57   52   59 1   
    58   53   54 1   
    59   53   55 2   
    60   54   60 1   
    61   54   61 1   
    62   62   63 1   
    63   62   66 1   
    64   63   64 1   
    65   63   67 1   
    66   63   68 1   
    67   64   65 2   
    68   64   69 1   
    69   69   70 1   
    70   69   76 1   
    71   70   71 1   
    72   70   73 1   
    73   70   77 1   
    74   71   72 2   
    75   71   83 1   
    76   73   74 1   
    77   73   75 1   
    78   73   78 1   
    79   74   80 1   
    80   74   81 1   
    81   74   82 1   
    82   75   79 1   
    83   83   84 1   
    84   83   91 1   
    85   84   85 1   
    86   84   87 1   
    87   84   92 1   
    88   85   86 2   
    89   85  102 1   
    90   87   88 1   
    91   87   89 1   
    92   87   93 1   
    93   88   90 1   
    94   88   94 1   
    95   88   95 1   
    96   89   96 1   
    97   89   97 1   
    98   89   98 1   
    99   90   99 1   
   100   90  100 1   
   101   90  101 1   
   102  102  103 1   
   103  102  110 1   
   104  103  104 1   
   105  103  106 1   
   106  103  111 1   
   107  104  105 2   
   108  104  114 1   
   109  106  107 1   
   110  106  112 1   
   111  106  113 1   
   112  107  108 1   
   113  107  109 1   
   114  114  115 1   
   115  114  125 1   
   116  115  116 1   
   117  115  118 1   
   118  115  126 1   
   119  116  117 2   
   120  116  134 1   
   121  118  119 1   
   122  118  127 1   
   123  118  128 1   
   124  119  120 ar  
   125  119  121 ar  
   126  120  122 ar  
   127  120  129 1   
   128  121  123 ar  
   129  121  130 1   
   130  122  124 ar  
   131  122  131 1   
   132  123  124 ar  
   133  123  132 1   
   134  124  133 1   
   135  134  135 1   
   136  134  140 1   
   137  135  136 1   
   138  135  138 1   
   139  135  141 1   
   140  136  137 2   
   141  136  148 1   
   142  138  139 1   
   143  138  142 1   
   144  138  143 1   
   145  139  140 1   
   146  139  144 1   
   147  139  145 1   
   148  140  146 1   
   149  140  147 1   
   150  148  149 1   
   151  148  157 1   
   152  149  150 1   
   153  149  152 1   
   154  149  158 1   
   155  150  151 2   
   156  150  163 1   
   157  152  153 1   
   158  152  159 1   
   159  152  160 1   
   160  153  154 1   
   161  153  161 1   
   162  153  162 1   
   163  154  155 1   
   164  154  156 1   
   165  163  164 1   
   166  163  168 1   
   167  164  165 1   
   168  164  166 1   
   169  164  167 1   
   170  170  171 1   
   171  170  172 1   
   172  173  174 1   
   173  173  175 1   
   174  176  177 1   
   175  176  178 1   
   176  179  180 1   
   177  179  181 1   
@<TRIPOS>SUBSTRUCTURE
     1 MOL         1 TEMP              0 ****  ****    0 ROOT
