@<TRIPOS>MOLECULE
MOL
  198   191     1     0     0
SMALL
resp


@<TRIPOS>ATOM
      1 C1          4.8380   -3.4950   -1.6310 c3        1 MOL     -0.275172
      2 C2          3.6120   -3.9990   -0.8990 c         1 MOL      0.758825
      3 O1          2.6970   -3.2220   -0.5450 o         1 MOL     -0.583218
      4 H1          4.8080   -3.8350   -2.6660 hc        1 MOL      0.012516
      5 H2          4.8530   -2.4060   -1.6060 hc        1 MOL      0.012516
      6 H3          5.7350   -3.8820   -1.1480 hc        1 MOL      0.012516
      7 N1          3.5740   -5.2920   -0.5410 n         1 MOL     -0.448094
      8 C3          2.5390   -5.9640    0.3040 c3        1 MOL     -0.080096
      9 C4          1.0540   -5.6970   -0.0620 c         1 MOL      0.663538
     10 O2          0.1940   -5.5690    0.8240 o         1 MOL     -0.460489
     11 C5          2.7820   -5.6600    1.7620 c3        1 MOL     -0.302775
     12 C6          2.3420   -6.8410    2.6780 c         1 MOL      0.753076
     13 O3          1.5870   -6.5490    3.6100 o         1 MOL     -0.662300
     14 O4          2.7840   -7.9700    2.4830 o         1 MOL     -0.662300
     15 H4          4.3630   -5.8670   -0.8150 hn        1 MOL      0.268577
     16 H5          2.5940   -7.0350    0.0940 h1        1 MOL      0.066073
     17 H6          2.4040   -4.7020    2.0860 hc        1 MOL      0.087479
     18 H7          3.8660   -5.6510    1.9180 hc        1 MOL      0.087479
     19 N2          0.7950   -5.6640   -1.3780 n         1 MOL     -0.430783
     20 C7         -0.4710   -5.5290   -1.9090 c3        1 MOL      0.018593
     21 C8         -1.4120   -6.7050   -1.4370 c         1 MOL      0.489576
     22 O5         -1.0550   -7.8340   -1.1890 o         1 MOL     -0.536380
     23 C9         -0.3510   -5.2540   -3.3720 c3        1 MOL      0.052364
     24 C10         0.2040   -6.4010   -4.2750 c3        1 MOL      0.098045
     25 C11         0.4450   -3.9000   -3.5110 c3        1 MOL     -0.441201
     26 C12        -0.1920   -6.3830   -5.7180 c3        1 MOL     -0.094597
     27 H8          1.5460   -5.8500   -2.0180 hn        1 MOL      0.188766
     28 H9         -0.8870   -4.6950   -1.3570 h1        1 MOL      0.075490
     29 H10        -1.3640   -5.0780   -3.7320 hc        1 MOL      0.066348
     30 H11        -0.0650   -7.3200   -3.7540 hc        1 MOL     -0.013943
     31 H12         1.2910   -6.3640   -4.2180 hc        1 MOL     -0.013943
     32 H13         0.4700   -3.5240   -4.5340 hc        1 MOL      0.131612
     33 H14        -0.0690   -3.1500   -2.9020 hc        1 MOL      0.131612
     34 H15         1.4620   -3.8620   -3.0970 hc        1 MOL      0.131612
     35 H16        -1.2740   -6.4520   -5.8580 hc        1 MOL      0.007452
     36 H17         0.0970   -5.3850   -6.0350 hc        1 MOL      0.007452
     37 H18         0.2770   -7.1460   -6.3420 hc        1 MOL      0.007452
     38 N3         -2.7410   -6.4590   -1.3530 n         1 MOL     -0.420038
     39 C13        -3.5250   -5.2480   -1.2120 c3        1 MOL     -0.222310
     40 C14        -4.2720   -5.4360    0.1090 c         1 MOL      0.550590
     41 O6         -5.2630   -6.1400    0.0580 o         1 MOL     -0.495331
     42 C15        -4.4570   -5.1960   -2.4440 c3        1 MOL     -0.215532
     43 C16        -5.5630   -4.1710   -2.5250 c         1 MOL      0.793856
     44 O7         -6.1070   -4.0500   -3.6160 o         1 MOL     -0.672039
     45 O8         -5.9360   -3.5800   -1.5140 o         1 MOL     -0.672039
     46 H19        -3.3400   -7.2500   -1.2020 hn        1 MOL      0.299958
     47 H20        -2.7880   -4.4470   -1.1010 h1        1 MOL      0.110980
     48 H21        -4.9160   -6.1690   -2.5790 hc        1 MOL      0.067897
     49 H22        -3.7720   -5.1130   -3.2870 hc        1 MOL      0.067897
     50 N4         -3.7390   -4.9000    1.1740 n         1 MOL     -0.257506
     51 C17        -4.3250   -5.1840    2.4200 c3        1 MOL     -0.141724
     52 C18        -5.5300   -4.2630    2.6720 c         1 MOL      0.575015
     53 O9         -6.5290   -4.6230    3.2280 o         1 MOL     -0.595604
     54 H23        -2.8580   -4.3970    1.1290 hn        1 MOL      0.280198
     55 H24        -3.6230   -5.0830    3.2400 h1        1 MOL      0.086472
     56 H25        -4.6940   -6.2150    2.4000 h1        1 MOL      0.086472
     57 N5         -5.3430   -3.0100    2.4240 n         1 MOL     -0.335074
     58 C19        -6.2490   -1.9240    2.9070 c3        1 MOL     -0.036188
     59 C20        -7.3450   -1.3860    1.9520 c         1 MOL      0.575906
     60 O10        -8.4100   -1.0730    2.3650 o         1 MOL     -0.548612
     61 C21        -5.3080   -0.7780    3.3350 c3        1 MOL     -0.106377
     62 C22        -4.2210   -0.4820    2.3170 c         1 MOL      0.688502
     63 O11        -3.2570   -1.3040    2.1650 o         1 MOL     -0.650852
     64 O12        -4.2530    0.6090    1.6510 o         1 MOL     -0.650852
     65 H26        -4.4960   -2.8170    1.9110 hn        1 MOL      0.151564
     66 H27        -6.7540   -2.2720    3.8050 h1        1 MOL      0.087723
     67 H28        -4.7710   -0.9320    4.2740 hc        1 MOL      0.031674
     68 H29        -5.9180    0.1080    3.5210 hc        1 MOL      0.031674
     69 N6         -6.9130   -1.2450    0.6660 n         1 MOL     -0.279969
     70 C23        -7.7910   -0.6230   -0.3480 c3        1 MOL      0.001132
     71 C24        -7.7770    0.9070   -0.3480 c         1 MOL      0.437869
     72 O13        -8.4490    1.4750   -1.1930 o         1 MOL     -0.537173
     73 H30        -5.9640   -1.4370    0.3860 hn        1 MOL      0.265414
     74 H31        -8.7840   -1.0820   -0.2330 h1        1 MOL      0.071769
     75 H32        -7.4610   -0.9550   -1.3380 h1        1 MOL      0.071769
     76 N7         -6.9290    1.5680    0.5590 n         1 MOL     -0.152136
     77 C25        -6.8650    3.0120    0.8590 c3        1 MOL      0.018797
     78 C26        -6.6450    3.9450   -0.3610 c         1 MOL      0.443610
     79 O14        -7.0860    5.0780   -0.4270 o         1 MOL     -0.509616
     80 C27        -7.9770    3.4410    1.9100 c3        1 MOL      0.168130
     81 C28        -7.5290    3.1560    3.3820 c3        1 MOL     -0.195889
     82 C29        -8.6640    2.9150    4.3440 c         1 MOL      0.615554
     83 N8         -9.3370    3.9700    4.8010 n         1 MOL     -0.827015
     84 O15        -9.0760    1.8120    4.6540 o         1 MOL     -0.519200
     85 H33        -6.3410    1.0350    1.1830 hn        1 MOL      0.038142
     86 H34        -5.9640    3.2000    1.4340 h1        1 MOL      0.086287
     87 H35        -8.8620    2.8680    1.6410 hc        1 MOL     -0.022357
     88 H36        -8.2350    4.4790    1.7410 hc        1 MOL     -0.022357
     89 H37        -6.8860    3.9700    3.7210 hc        1 MOL      0.039304
     90 H38        -6.9170    2.2610    3.4620 hc        1 MOL      0.039304
     91 H39        -9.0180    4.8660    4.4730 hn        1 MOL      0.359734
     92 H40       -10.0570    3.8080    5.4960 hn        1 MOL      0.359734
     93 N9         -5.9730    3.4410   -1.4490 n         1 MOL     -0.416276
     94 C30        -5.6980    4.1200   -2.7530 c3        1 MOL     -0.029479
     95 C31        -4.1540    4.2330   -3.1020 c         1 MOL      0.472930
     96 O16        -3.7520    4.9200   -4.0160 o         1 MOL     -0.564823
     97 C32        -6.4860    3.4590   -3.9450 c3        1 MOL      0.313810
     98 C33        -6.2000    1.9430   -4.1880 c3        1 MOL     -0.381895
     99 C34        -7.9130    3.7050   -3.6900 c3        1 MOL     -0.381895
    100 H41        -5.6350    2.5030   -1.3090 hn        1 MOL      0.258650
    101 H42        -5.9750    5.1720   -2.6650 h1        1 MOL      0.103531
    102 H43        -6.3340    4.0180   -4.8700 hc        1 MOL     -0.040096
    103 H44        -6.8750    1.5210   -4.9400 hc        1 MOL      0.094036
    104 H45        -5.1350    1.8050   -4.3660 hc        1 MOL      0.094036
    105 H46        -6.3600    1.4260   -3.2480 hc        1 MOL      0.094036
    106 H47        -8.5440    3.1230   -4.3650 hc        1 MOL      0.094036
    107 H48        -8.2640    3.2620   -2.7540 hc        1 MOL      0.094036
    108 H49        -8.1590    4.7650   -3.7680 hc        1 MOL      0.094036
    109 N10        -3.3180    3.3910   -2.4630 n         1 MOL     -0.309842
    110 C35        -1.8710    3.3550   -2.6180 c3        1 MOL      0.234384
    111 C36        -1.1140    3.2220   -1.2600 c         1 MOL      0.280515
    112 O17        -1.7480    3.0060   -0.2260 o         1 MOL     -0.482426
    113 C37        -1.5140    2.3490   -3.7500 c3        1 MOL     -0.201939
    114 C38        -0.6570    1.1770   -3.2340 c         1 MOL      0.650906
    115 N11        -1.3020    0.3030   -2.4710 n         1 MOL     -0.850097
    116 O18         0.4830    1.0610   -3.5620 o         1 MOL     -0.570206
    117 H50        -3.6250    2.8200   -1.6830 hn        1 MOL      0.175243
    118 H51        -1.6610    4.3470   -3.0140 h1        1 MOL      0.055352
    119 H52        -0.9590    2.8350   -4.5600 hc        1 MOL      0.053599
    120 H53        -2.3760    1.8500   -4.2090 hc        1 MOL      0.053599
    121 H54        -2.2710    0.4150   -2.1950 hn        1 MOL      0.398993
    122 H55        -0.7320   -0.4270   -2.0590 hn        1 MOL      0.398993
    123 N12         0.1370    3.5320   -1.2090 n         1 MOL     -0.234070
    124 C39         0.9380    3.8190   -0.0070 c3        1 MOL      0.042947
    125 C40         2.0880    4.6340   -0.3990 c         1 MOL      0.554688
    126 O19         2.4690    4.6210   -1.5560 o         1 MOL     -0.584566
    127 C41         1.3310    2.4450    0.6730 c3        1 MOL     -0.294882
    128 C42         1.4340    2.5730    2.1400 ca        1 MOL      0.047236
    129 C43         2.6640    2.6180    2.7020 ca        1 MOL     -0.119867
    130 C44         0.2250    2.7560    2.8580 ca        1 MOL     -0.119867
    131 C45         2.8010    2.7960    4.0890 ca        1 MOL     -0.296817
    132 C46         0.3670    2.9280    4.2510 ca        1 MOL     -0.296817
    133 C47         1.6290    3.0340    4.8360 ca        1 MOL      0.355854
    134 O20         1.7730    3.2310    6.1600 oh        1 MOL     -0.492291
    135 H56         0.5940    3.7890   -2.0720 hn        1 MOL      0.209266
    136 H57         0.3460    4.3680    0.7340 h1        1 MOL      0.087179
    137 H58         2.2400    2.1010    0.1920 hc        1 MOL      0.155587
    138 H59         0.5730    1.7430    0.3640 hc        1 MOL      0.155587
    139 H60         3.5910    2.5860    2.1460 ha        1 MOL      0.181822
    140 H61        -0.7380    2.6490    2.3720 ha        1 MOL      0.181822
    141 H62         3.7440    2.9640    4.5700 ha        1 MOL      0.152727
    142 H63        -0.4520    3.0990    4.9360 ha        1 MOL      0.152727
    143 H64         2.6850    3.0080    6.3690 ho        1 MOL      0.339172
    144 N13         2.7620    5.3160    0.5020 n         1 MOL     -0.499447
    145 C48         4.1090    5.8170    0.2000 c3        1 MOL      0.007902
    146 C49         5.3270    5.0920    0.8760 c         1 MOL      0.449540
    147 O21         5.7600    5.4160    1.9980 o         1 MOL     -0.574750
    148 C50         4.2770    7.3000    0.5180 c3        1 MOL      0.189677
    149 C51         3.3460    8.0930   -0.3550 c3        1 MOL     -0.274632
    150 C52         3.5770    9.5890   -0.0660 c         1 MOL      0.698266
    151 O22         3.2060    9.9700    1.0460 o         1 MOL     -0.745042
    152 O23         4.2140   10.3070   -0.8700 o         1 MOL     -0.745042
    153 H65         2.3950    5.5200    1.4220 hn        1 MOL      0.310761
    154 H66         4.3050    5.6320   -0.8520 h1        1 MOL      0.174956
    155 H67         5.2910    7.6650    0.3430 hc        1 MOL      0.008781
    156 H68         4.0990    7.4760    1.5810 hc        1 MOL      0.008781
    157 H69         2.2900    7.9350   -0.1040 hc        1 MOL      0.031595
    158 H70         3.6030    7.8740   -1.3880 hc        1 MOL      0.031595
    159 N14         5.9800    4.0720    0.3270 n         1 MOL     -0.507417
    160 C53         5.6240    3.3360   -0.8630 c3        1 MOL      0.048954
    161 C54         5.9940    4.0880   -2.1420 c         1 MOL      0.279375
    162 O24         6.7350    5.0540   -2.0570 o         1 MOL     -0.470507
    163 C55         6.4720    1.9520   -0.8140 c3        1 MOL     -0.003174
    164 C56         6.0960    1.0400    0.3560 c3        1 MOL     -0.375238
    165 C57         7.0100   -0.2060    0.6070 c         1 MOL      0.688204
    166 O25         7.3260   -1.0060   -0.2790 o         1 MOL     -0.623938
    167 O26         7.5770   -0.2980    1.6960 o         1 MOL     -0.623938
    168 H71         6.7660    3.6580    0.8010 hn        1 MOL      0.358558
    169 H72         4.5520    3.1270   -0.7450 h1        1 MOL      0.097845
    170 H73         7.5140    2.2460   -0.6750 hc        1 MOL      0.034957
    171 H74         6.4140    1.3870   -1.7370 hc        1 MOL      0.034957
    172 H75         5.0360    0.7910    0.2720 hc        1 MOL      0.062569
    173 H76         6.1400    1.6160    1.2820 hc        1 MOL      0.062569
    174 N15         5.3930    3.8020   -3.3030 n         1 MOL     -0.142415
    175 C58         5.6480    4.4660   -4.5780 c3        1 MOL     -0.367450
    176 H77         5.2910    3.8360   -5.3930 h1        1 MOL      0.137108
    177 H78         5.1240    5.4220   -4.6020 h1        1 MOL      0.137108
    178 H79         6.7200    4.6350   -4.6910 h1        1 MOL      0.137108
    179 H80         4.8450    2.9520   -3.3210 hn        1 MOL      0.246817
    180 Ca1         9.1210   -2.5030    0.8080 Ca        1 MOL      1.740192
    181 O27        10.2650   -2.7090   -1.6540 oh        1 MOL     -0.877661
    182 H81        10.0210   -2.0750   -2.3410 ho        1 MOL      0.394732
    183 H82        11.1970   -2.5310   -1.4960 ho        1 MOL      0.394732
    184 O28        10.0190   -1.5940    3.2730 oh        1 MOL     -0.877661
    185 H83         9.3940   -1.7340    3.9740 ho        1 MOL      0.394732
    186 H84        10.6400   -0.9650    3.6300 ho        1 MOL      0.394732
    187 O29        10.3380   -0.2170   -0.1100 oh        1 MOL     -0.877661
    188 H85        10.4300    0.6310    0.3260 ho        1 MOL      0.394732
    189 H86        10.0120    0.0070   -0.9770 ho        1 MOL      0.394732
    190 O30         7.1990   -3.6010    2.2880 oh        1 MOL     -0.877661
    191 H87         6.7940   -3.3900    3.1300 ho        1 MOL      0.394732
    192 H88         6.8000   -4.4390    2.0290 ho        1 MOL      0.394732
    193 O31        10.1540   -4.9790    1.2230 oh        1 MOL     -0.877661
    194 H89        11.0890   -5.1290    1.2720 ho        1 MOL      0.394732
    195 H90         9.7900   -5.7790    0.8400 ho        1 MOL      0.394732
    196 O32        12.0320   -2.5390    0.8170 oh        1 MOL     -0.877661
    197 H91        12.3960   -1.9350    1.4710 ho        1 MOL      0.394732
    198 H92        12.6600   -3.2700    0.8020 ho        1 MOL      0.394732
@<TRIPOS>BOND
     1    1    2 1   
     2    1    4 1   
     3    1    5 1   
     4    1    6 1   
     5    2    3 2   
     6    2    7 1   
     7    7    8 1   
     8    7   15 1   
     9    8    9 1   
    10    8   11 1   
    11    8   16 1   
    12    9   10 2   
    13    9   19 1   
    14   11   12 1   
    15   11   17 1   
    16   11   18 1   
    17   12   13 1   
    18   12   14 1   
    19   19   20 1   
    20   19   27 1   
    21   20   21 1   
    22   20   23 1   
    23   20   28 1   
    24   21   22 2   
    25   21   38 1   
    26   23   24 1   
    27   23   25 1   
    28   23   29 1   
    29   24   26 1   
    30   24   30 1   
    31   24   31 1   
    32   25   32 1   
    33   25   33 1   
    34   25   34 1   
    35   26   35 1   
    36   26   36 1   
    37   26   37 1   
    38   38   39 1   
    39   38   46 1   
    40   39   40 1   
    41   39   42 1   
    42   39   47 1   
    43   40   41 2   
    44   40   50 1   
    45   42   43 1   
    46   42   48 1   
    47   42   49 1   
    48   43   44 1   
    49   43   45 1   
    50   50   51 1   
    51   50   54 1   
    52   51   52 1   
    53   51   55 1   
    54   51   56 1   
    55   52   53 2   
    56   52   57 1   
    57   57   58 1   
    58   57   65 1   
    59   58   59 1   
    60   58   61 1   
    61   58   66 1   
    62   59   60 2   
    63   59   69 1   
    64   61   62 1   
    65   61   67 1   
    66   61   68 1   
    67   62   63 1   
    68   62   64 1   
    69   69   70 1   
    70   69   73 1   
    71   70   71 1   
    72   70   74 1   
    73   70   75 1   
    74   71   72 2   
    75   71   76 1   
    76   76   77 1   
    77   76   85 1   
    78   77   78 1   
    79   77   80 1   
    80   77   86 1   
    81   78   79 2   
    82   78   93 1   
    83   80   81 1   
    84   80   87 1   
    85   80   88 1   
    86   81   82 1   
    87   81   89 1   
    88   81   90 1   
    89   82   83 1   
    90   82   84 2   
    91   83   91 1   
    92   83   92 1   
    93   93   94 1   
    94   93  100 1   
    95   94   95 1   
    96   94   97 1   
    97   94  101 1   
    98   95   96 2   
    99   95  109 1   
   100   97   98 1   
   101   97   99 1   
   102   97  102 1   
   103   98  103 1   
   104   98  104 1   
   105   98  105 1   
   106   99  106 1   
   107   99  107 1   
   108   99  108 1   
   109  109  110 1   
   110  109  117 1   
   111  110  111 1   
   112  110  113 1   
   113  110  118 1   
   114  111  112 2   
   115  111  123 1   
   116  113  114 1   
   117  113  119 1   
   118  113  120 1   
   119  114  115 1   
   120  114  116 2   
   121  115  121 1   
   122  115  122 1   
   123  123  124 1   
   124  123  135 1   
   125  124  125 1   
   126  124  127 1   
   127  124  136 1   
   128  125  126 2   
   129  125  144 1   
   130  127  128 1   
   131  127  137 1   
   132  127  138 1   
   133  128  129 ar  
   134  128  130 ar  
   135  129  131 ar  
   136  129  139 1   
   137  130  132 ar  
   138  130  140 1   
   139  131  133 ar  
   140  131  141 1   
   141  132  133 ar  
   142  132  142 1   
   143  133  134 1   
   144  134  143 1   
   145  144  145 1   
   146  144  153 1   
   147  145  146 1   
   148  145  148 1   
   149  145  154 1   
   150  146  147 2   
   151  146  159 1   
   152  148  149 1   
   153  148  155 1   
   154  148  156 1   
   155  149  150 1   
   156  149  157 1   
   157  149  158 1   
   158  150  151 1   
   159  150  152 1   
   160  159  160 1   
   161  159  168 1   
   162  160  161 1   
   163  160  163 1   
   164  160  169 1   
   165  161  162 2   
   166  161  174 1   
   167  163  164 1   
   168  163  170 1   
   169  163  171 1   
   170  164  165 1   
   171  164  172 1   
   172  164  173 1   
   173  165  166 1   
   174  165  167 1   
   175  174  175 1   
   176  174  179 1   
   177  175  176 1   
   178  175  177 1   
   179  175  178 1   
   180  181  182 1   
   181  181  183 1   
   182  184  185 1   
   183  184  186 1   
   184  187  188 1   
   185  187  189 1   
   186  190  191 1   
   187  190  192 1   
   188  193  194 1   
   189  193  195 1   
   190  196  197 1   
   191  196  198 1   
@<TRIPOS>SUBSTRUCTURE
     1 MOL         1 TEMP              0 ****  ****    0 ROOT
