@<TRIPOS>MOLECULE
MOL
  182   178     1     0     0
SMALL
resp


@<TRIPOS>ATOM
      1 C1          0.1560   -3.1990    6.3480 c3        1 MOL     -0.372263
      2 C2          0.2850   -3.0930    4.8310 c         1 MOL      0.815825
      3 O1         -0.7400   -3.1450    4.1450 o         1 MOL     -0.602487
      4 H1         -0.2520   -2.2690    6.7430 hc        1 MOL      0.101312
      5 H2         -0.5110   -4.0230    6.6000 hc        1 MOL      0.101312
      6 H3          1.1380   -3.3790    6.7850 hc        1 MOL      0.101312
      7 N1          1.5360   -3.0940    4.3450 n         1 MOL     -0.618372
      8 C3          1.8350   -2.9870    2.8710 c3        1 MOL      0.050588
      9 C4          1.7820   -4.3510    2.1460 c         1 MOL      0.609027
     10 O2          2.1350   -5.4300    2.6290 o         1 MOL     -0.549315
     11 C5          3.1450   -2.2040    2.8100 c3        1 MOL     -0.211477
     12 C6          3.3730   -1.5960    1.3760 c         1 MOL      0.838749
     13 O3          3.9990   -0.4940    1.3000 o         1 MOL     -0.802504
     14 O4          3.0580   -2.0940    0.2890 o         1 MOL     -0.802504
     15 H4          2.3130   -2.9690    4.9800 hn        1 MOL      0.343108
     16 H5          1.1590   -2.2910    2.3670 h1        1 MOL     -0.045174
     17 H6          3.9840   -2.8550    3.0800 hc        1 MOL      0.088218
     18 H7          3.0480   -1.3580    3.4920 hc        1 MOL      0.088218
     19 N2          1.4000   -4.3400    0.8570 n         1 MOL     -0.474432
     20 C7          1.3270   -5.4240   -0.1050 c3        1 MOL      0.013575
     21 C8          2.4620   -5.4920   -1.1190 c         1 MOL      0.537772
     22 O5          2.5570   -6.5180   -1.7920 o         1 MOL     -0.560649
     23 C9         -0.0410   -5.3570   -0.7040 c3        1 MOL      0.181508
     24 C10        -0.4430   -6.5790   -1.5460 c3        1 MOL      0.075410
     25 C11        -1.9680   -6.4060   -1.8580 c3        1 MOL      0.039700
     26 C12        -2.3800   -7.5100   -2.7170 c3        1 MOL      0.082714
     27 N3         -3.7740   -7.4670   -3.2310 n4        1 MOL     -0.240923
     28 H8          1.2980   -3.4380    0.4090 hn        1 MOL      0.350199
     29 H9          1.3400   -6.3480    0.4800 h1        1 MOL      0.109133
     30 H10        -0.1860   -4.4520   -1.3000 hc        1 MOL     -0.063584
     31 H11        -0.7550   -5.2450    0.1130 hc        1 MOL     -0.063584
     32 H12        -0.0460   -7.4500   -1.0190 hc        1 MOL     -0.022492
     33 H13         0.1300   -6.5250   -2.4670 hc        1 MOL     -0.022492
     34 H14        -2.0460   -5.4800   -2.4150 hc        1 MOL      0.005807
     35 H15        -2.5270   -6.3700   -0.9180 hc        1 MOL      0.005807
     36 H16        -2.2310   -8.4120   -2.1290 hx        1 MOL      0.044998
     37 H17        -1.7490   -7.5300   -3.6050 hx        1 MOL      0.044998
     38 H18        -3.8790   -6.6070   -3.7560 hn        1 MOL      0.241020
     39 H19        -3.8530   -8.1790   -3.9410 hn        1 MOL      0.241020
     40 H20        -4.4930   -7.5130   -2.5280 hn        1 MOL      0.241020
     41 N4          3.3230   -4.4230   -1.1100 n         1 MOL     -0.371822
     42 C13         4.5710   -4.4560   -1.8450 c3        1 MOL      0.164818
     43 C14         5.8170   -4.0320   -1.0480 c         1 MOL      0.291683
     44 O6          6.9120   -4.5060   -1.3270 o         1 MOL     -0.514982
     45 C15         4.5270   -3.6070   -3.1330 c3        1 MOL     -0.412933
     46 C16         3.9960   -2.2020   -2.7800 c         1 MOL      0.831787
     47 O7          2.8190   -1.8720   -2.9610 o         1 MOL     -0.769012
     48 O8          4.6770   -1.3380   -2.0930 o         1 MOL     -0.769012
     49 H21         3.0790   -3.6170   -0.5590 hn        1 MOL      0.171239
     50 H22         4.7320   -5.4760   -2.1920 h1        1 MOL      0.101968
     51 H23         3.8220   -4.0460   -3.8370 hc        1 MOL      0.126532
     52 H24         5.4530   -3.6000   -3.7080 hc        1 MOL      0.126532
     53 N5          5.6890   -3.1980   -0.0560 n         1 MOL      0.037058
     54 C17         6.7550   -2.7490    0.8900 c3        1 MOL     -0.220068
     55 C18         7.2630   -1.3250    0.7480 c         1 MOL      0.628666
     56 O9          7.9910   -0.7540    1.6220 o         1 MOL     -0.612812
     57 H25         4.7920   -2.7660    0.1340 hn        1 MOL      0.037830
     58 H26         7.7120   -3.2540    0.7580 h1        1 MOL      0.104806
     59 H27         6.3540   -2.8200    1.8970 h1        1 MOL      0.104806
     60 N6          6.9000   -0.5710   -0.2680 n         1 MOL     -0.173909
     61 C19         7.4260    0.7850   -0.5580 c3        1 MOL      0.014492
     62 C20         6.2840    1.7700   -0.9170 c         1 MOL      0.526188
     63 O10         5.1150    1.4640   -0.8450 o         1 MOL     -0.402467
     64 C21         8.4630    0.7290   -1.6830 c3        1 MOL     -0.665135
     65 C22         9.6970   -0.1290   -1.4290 c         1 MOL      0.877687
     66 N7         10.5450    0.1300   -0.4610 n         1 MOL     -0.917022
     67 O11         9.9390   -1.0980   -2.0820 o         1 MOL     -0.571106
     68 H28         6.2530   -0.9320   -0.9610 hn        1 MOL      0.206792
     69 H29         7.9150    1.2670    0.2860 h1        1 MOL      0.065493
     70 H30         8.9260    1.6820   -1.9410 hc        1 MOL      0.163123
     71 H31         7.9060    0.3830   -2.5510 hc        1 MOL      0.163123
     72 H32        10.3460    0.9610    0.0740 hn        1 MOL      0.407277
     73 H33        11.2720   -0.5250   -0.1860 hn        1 MOL      0.407277
     74 N8          6.6400    3.0740   -1.1080 n         1 MOL     -0.337392
     75 C23         5.7040    4.2020   -1.2550 c3        1 MOL     -0.367919
     76 C24         4.6210    4.3390   -0.1320 c         1 MOL      0.651437
     77 O12         4.8120    4.0040    1.0550 o         1 MOL     -0.500999
     78 H34         7.6310    3.2740   -1.0590 hn        1 MOL      0.303318
     79 H35         5.1570    3.9630   -2.1690 h1        1 MOL      0.153858
     80 H36         6.2330    5.1400   -1.1130 h1        1 MOL      0.153858
     81 N9          3.3910    4.8850   -0.4730 n         1 MOL     -0.591923
     82 C25         2.2500    4.9040    0.3770 c3        1 MOL      0.208276
     83 C26         1.8090    3.5170    0.8000 c         1 MOL      0.727616
     84 O13         2.2550    2.5180    0.2310 o         1 MOL     -0.622298
     85 C27         1.1350    5.6350   -0.3070 c3        1 MOL     -0.170736
     86 C28         1.4070    7.1300   -0.4710 ca        1 MOL     -0.074594
     87 C29         1.5550    8.0690    0.6090 ca        1 MOL     -0.015390
     88 C30         1.3680    7.5580   -1.7730 ca        1 MOL     -0.015390
     89 C31         1.7570    9.4280    0.1920 ca        1 MOL     -0.331613
     90 C32         1.8280    8.8240   -2.1190 ca        1 MOL     -0.331613
     91 C33         1.9430    9.7690   -1.1220 ca        1 MOL      0.404078
     92 O14         2.1350   11.0540   -1.4440 oh        1 MOL     -0.480222
     93 H37         3.2460    5.1630   -1.4380 hn        1 MOL      0.256717
     94 H38         2.5870    5.4740    1.2440 h1        1 MOL      0.061697
     95 H39         0.2710    5.5450    0.3470 hc        1 MOL      0.056416
     96 H40         0.9250    5.1470   -1.2580 hc        1 MOL      0.056416
     97 H41         1.6800    7.7560    1.6330 ha        1 MOL      0.100480
     98 H42         1.2280    6.8590   -2.5770 ha        1 MOL      0.100480
     99 H43         1.9080   10.1830    0.9420 ha        1 MOL      0.162199
    100 H44         2.0990    9.0630   -3.1410 ha        1 MOL      0.162199
    101 H45         2.2320   11.2370   -2.3820 ho        1 MOL      0.365941
    102 N10         0.8620    3.4030    1.7220 n         1 MOL     -0.794329
    103 C34         0.4740    2.0900    2.3170 c3        1 MOL      0.173352
    104 C35         0.0560    0.9580    1.3980 c         1 MOL      0.478774
    105 O15         0.8530    0.2810    0.7340 o         1 MOL     -0.367284
    106 C36         1.4670    1.6530    3.4250 c3        1 MOL      0.169797
    107 C37         0.9140    0.4090    4.2410 c3        1 MOL     -0.282176
    108 C38         1.8470    2.8180    4.3760 c3        1 MOL     -0.380225
    109 C39        -0.1320    0.7970    5.3070 c3        1 MOL     -0.151297
    110 H46         0.6030    4.2350    2.2410 hn        1 MOL      0.357778
    111 H47        -0.4410    2.2770    2.8700 h1        1 MOL      0.064900
    112 H48         2.2990    1.3100    2.8180 hc        1 MOL      0.052589
    113 H49         1.6890   -0.1270    4.7860 hc        1 MOL      0.094129
    114 H50         0.5260   -0.3510    3.5680 hc        1 MOL      0.094129
    115 H51         2.3540    2.3740    5.2320 hc        1 MOL      0.109126
    116 H52         2.5350    3.4930    3.8640 hc        1 MOL      0.109126
    117 H53         0.9790    3.3580    4.7640 hc        1 MOL      0.109126
    118 H54        -0.5780   -0.0760    5.8060 hc        1 MOL      0.048858
    119 H55         0.2250    1.4210    6.1240 hc        1 MOL      0.048858
    120 H56        -0.9340    1.4210    4.8910 hc        1 MOL      0.048858
    121 N11        -1.2570    0.6750    1.3410 n         1 MOL     -0.408742
    122 C40        -1.8070   -0.4180    0.4820 c3        1 MOL     -0.277978
    123 C41        -3.2980   -0.3030    0.0680 c         1 MOL      0.683918
    124 O16        -3.7260   -1.1700   -0.6550 o         1 MOL     -0.582426
    125 C42        -1.5680   -1.6840    1.2120 c3        1 MOL      0.538618
    126 O17        -2.3160   -1.7240    2.4080 oh        1 MOL     -0.687928
    127 H57        -1.9220    1.2650    1.8320 hn        1 MOL      0.267910
    128 H58        -1.2780   -0.3960   -0.4610 h1        1 MOL      0.116733
    129 H59        -0.5090   -1.7950    1.4370 h1        1 MOL     -0.079231
    130 H60        -1.6760   -2.6110    0.6480 h1        1 MOL     -0.079231
    131 H61        -1.8260   -2.2570    3.0450 ho        1 MOL      0.429281
    132 N12        -3.9750    0.7130    0.5370 n         1 MOL     -0.482784
    133 C43        -5.4720    0.8460    0.2100 c3        1 MOL     -0.012218
    134 C44        -5.7420    1.5220   -1.1940 c         1 MOL      0.628670
    135 O18        -4.9370    2.2720   -1.7970 o         1 MOL     -0.586119
    136 C45        -6.0640    1.6230    1.3860 c3        1 MOL     -0.165841
    137 H62        -3.4960    1.4730    0.9950 hn        1 MOL      0.286103
    138 H63        -5.8740   -0.1650    0.2390 h1        1 MOL      0.148395
    139 H64        -7.1270    1.7820    1.2010 hc        1 MOL      0.069986
    140 H65        -5.8440    1.1280    2.3340 hc        1 MOL      0.069986
    141 H66        -5.5680    2.5910    1.4890 hc        1 MOL      0.069986
    142 N13        -6.9240    1.3910   -1.7730 n         1 MOL     -0.617970
    143 C46        -7.8800    0.3300   -1.4590 c3        1 MOL      0.360080
    144 C47        -9.2300    0.6990   -2.1500 c         1 MOL      0.286939
    145 O19        -9.2120    1.0140   -3.3530 o         1 MOL     -0.516100
    146 C48        -7.3240   -0.9300   -2.1990 c3        1 MOL     -0.226831
    147 H67        -7.0270    1.7430   -2.7130 hn        1 MOL      0.350870
    148 H68        -7.9720    0.1260   -0.3980 h1        1 MOL     -0.013738
    149 H69        -8.1460   -1.6390   -2.1390 hc        1 MOL      0.059756
    150 H70        -7.0550   -0.7270   -3.2370 hc        1 MOL      0.059756
    151 H71        -6.4520   -1.2960   -1.6580 hc        1 MOL      0.059756
    152 N14       -10.3570    0.6470   -1.4400 n         1 MOL     -0.134311
    153 C49       -10.5020    0.3580   -0.0270 c3        1 MOL     -0.262077
    154 C50       -10.0880    1.5620    0.9780 c         1 MOL      0.508526
    155 O20        -9.7750    1.3570    2.1220 o         1 MOL     -0.507957
    156 C51       -11.9340   -0.0310    0.4060 c3        1 MOL     -0.013489
    157 C52       -12.5000   -1.1340   -0.6530 c3        1 MOL     -0.212705
    158 C53       -13.9970   -1.3810   -0.4860 c         1 MOL      0.707937
    159 O21       -14.8460   -0.4990   -0.7860 o         1 MOL     -0.660020
    160 O22       -14.3610   -2.4980   -0.0950 o         1 MOL     -0.660020
    161 H72       -11.1830    0.9990   -1.9060 hn        1 MOL      0.255962
    162 H73        -9.8750   -0.4940    0.2160 h1        1 MOL      0.123293
    163 H74       -12.5970    0.8300    0.3260 hc        1 MOL      0.057540
    164 H75       -11.9030   -0.3630    1.4380 hc        1 MOL      0.057540
    165 H76       -12.0210   -2.0940   -0.4640 hc        1 MOL      0.038980
    166 H77       -12.2420   -0.9470   -1.7020 hc        1 MOL      0.038980
    167 N15       -10.0280    2.7540    0.3930 n         1 MOL     -0.263462
    168 C54        -9.3270    3.9440    0.8810 c3        1 MOL     -0.291153
    169 H78        -9.9650    4.4770    1.5860 h1        1 MOL      0.123669
    170 H79        -8.4060    3.6440    1.3810 h1        1 MOL      0.123669
    171 H80        -9.0900    4.5950    0.0400 h1        1 MOL      0.123669
    172 H81       -10.3690    2.7860   -0.5510 hn        1 MOL      0.233398
    173 Ca1         2.9110    0.1180   -1.1210 Ca        1 MOL      1.807842
    174 O23         3.6420    1.7270   -3.1280 oh        1 MOL     -0.873689
    175 H82         3.6590    2.6700   -2.9870 ho        1 MOL      0.424611
    176 H83         3.8670    1.6070   -4.0460 ho        1 MOL      0.424611
    177 O24         0.6180   -1.5890   -1.6070 oh        1 MOL     -0.873689
    178 H84         1.0900   -1.8490   -2.3950 ho        1 MOL      0.424611
    179 H85        -0.2680   -1.9380   -1.7360 ho        1 MOL      0.424611
    180 O25         0.6530    1.5290   -2.1930 oh        1 MOL     -0.873689
    181 H86        -0.2460    1.2640   -2.4120 ho        1 MOL      0.424611
    182 H87         0.7280    2.4330   -2.4990 ho        1 MOL      0.424611
@<TRIPOS>BOND
     1    1    2 1   
     2    1    4 1   
     3    1    5 1   
     4    1    6 1   
     5    2    3 2   
     6    2    7 1   
     7    7    8 1   
     8    7   15 1   
     9    8    9 1   
    10    8   11 1   
    11    8   16 1   
    12    9   10 2   
    13    9   19 1   
    14   11   12 1   
    15   11   17 1   
    16   11   18 1   
    17   12   13 1   
    18   12   14 1   
    19   19   20 1   
    20   19   28 1   
    21   20   21 1   
    22   20   23 1   
    23   20   29 1   
    24   21   22 2   
    25   21   41 1   
    26   23   24 1   
    27   23   30 1   
    28   23   31 1   
    29   24   25 1   
    30   24   32 1   
    31   24   33 1   
    32   25   26 1   
    33   25   34 1   
    34   25   35 1   
    35   26   27 1   
    36   26   36 1   
    37   26   37 1   
    38   27   38 1   
    39   27   39 1   
    40   27   40 1   
    41   41   42 1   
    42   41   49 1   
    43   42   43 1   
    44   42   45 1   
    45   42   50 1   
    46   43   44 2   
    47   43   53 1   
    48   45   46 1   
    49   45   51 1   
    50   45   52 1   
    51   46   47 1   
    52   46   48 1   
    53   53   54 1   
    54   53   57 1   
    55   54   55 1   
    56   54   58 1   
    57   54   59 1   
    58   55   56 2   
    59   55   60 1   
    60   60   61 1   
    61   60   68 1   
    62   61   62 1   
    63   61   64 1   
    64   61   69 1   
    65   62   63 2   
    66   62   74 1   
    67   64   65 1   
    68   64   70 1   
    69   64   71 1   
    70   65   66 1   
    71   65   67 2   
    72   66   72 1   
    73   66   73 1   
    74   74   75 1   
    75   74   78 1   
    76   75   76 1   
    77   75   79 1   
    78   75   80 1   
    79   76   77 2   
    80   76   81 1   
    81   81   82 1   
    82   81   93 1   
    83   82   83 1   
    84   82   85 1   
    85   82   94 1   
    86   83   84 2   
    87   83  102 1   
    88   85   86 1   
    89   85   95 1   
    90   85   96 1   
    91   86   87 ar  
    92   86   88 ar  
    93   87   89 ar  
    94   87   97 1   
    95   88   90 ar  
    96   88   98 1   
    97   89   91 ar  
    98   89   99 1   
    99   90   91 ar  
   100   90  100 1   
   101   91   92 1   
   102   92  101 1   
   103  102  103 1   
   104  102  110 1   
   105  103  104 1   
   106  103  106 1   
   107  103  111 1   
   108  104  105 2   
   109  104  121 1   
   110  106  107 1   
   111  106  108 1   
   112  106  112 1   
   113  107  109 1   
   114  107  113 1   
   115  107  114 1   
   116  108  115 1   
   117  108  116 1   
   118  108  117 1   
   119  109  118 1   
   120  109  119 1   
   121  109  120 1   
   122  121  122 1   
   123  121  127 1   
   124  122  123 1   
   125  122  125 1   
   126  122  128 1   
   127  123  124 2   
   128  123  132 1   
   129  125  126 1   
   130  125  129 1   
   131  125  130 1   
   132  126  131 1   
   133  132  133 1   
   134  132  137 1   
   135  133  134 1   
   136  133  136 1   
   137  133  138 1   
   138  134  135 2   
   139  134  142 1   
   140  136  139 1   
   141  136  140 1   
   142  136  141 1   
   143  142  143 1   
   144  142  147 1   
   145  143  144 1   
   146  143  146 1   
   147  143  148 1   
   148  144  145 2   
   149  144  152 1   
   150  146  149 1   
   151  146  150 1   
   152  146  151 1   
   153  152  153 1   
   154  152  161 1   
   155  153  154 1   
   156  153  156 1   
   157  153  162 1   
   158  154  155 2   
   159  154  167 1   
   160  156  157 1   
   161  156  163 1   
   162  156  164 1   
   163  157  158 1   
   164  157  165 1   
   165  157  166 1   
   166  158  159 1   
   167  158  160 1   
   168  167  168 1   
   169  167  172 1   
   170  168  169 1   
   171  168  170 1   
   172  168  171 1   
   173  174  175 1   
   174  174  176 1   
   175  177  178 1   
   176  177  179 1   
   177  180  181 1   
   178  180  182 1   
@<TRIPOS>SUBSTRUCTURE
     1 MOL         1 TEMP              0 ****  ****    0 ROOT
