@<TRIPOS>MOLECULE
MOL
  198   191     1     0     0
SMALL
resp


@<TRIPOS>ATOM
      1 C1          5.0500   -0.1780    6.4980 c3        1 MOL     -0.411435
      2 C2          4.7160    0.1040    4.9530 c         1 MOL      0.749972
      3 O1          4.0490    1.0240    4.5690 o         1 MOL     -0.564121
      4 H1          4.1270   -0.3920    7.0360 hc        1 MOL      0.110986
      5 H2          5.7220   -1.0340    6.5750 hc        1 MOL      0.110986
      6 H3          5.5290    0.6990    6.9340 hc        1 MOL      0.110986
      7 N1          5.1280   -0.7990    4.0490 n         1 MOL     -0.767948
      8 C3          5.0090   -0.7190    2.6030 c3        1 MOL      0.297656
      9 C4          3.6350   -1.0770    2.0260 c         1 MOL      0.134263
     10 O2          3.3930   -1.2960    0.8350 o         1 MOL     -0.330246
     11 C5          6.1310   -1.5230    1.8710 c3        1 MOL     -0.132908
     12 C6          6.3720   -2.9600    2.2780 c         1 MOL      0.747280
     13 O3          6.4470   -3.9340    1.4790 o         1 MOL     -0.713311
     14 O4          6.5020   -3.1160    3.5450 o         1 MOL     -0.713311
     15 H4          5.7090   -1.5810    4.3090 hn        1 MOL      0.388280
     16 H5          5.1210    0.3330    2.3260 h1        1 MOL      0.098291
     17 H6          7.0890   -0.9980    1.9100 hc        1 MOL     -0.000891
     18 H7          5.9140   -1.6080    0.8040 hc        1 MOL     -0.000891
     19 N2          2.5660   -1.0370    2.8580 n         1 MOL     -0.131685
     20 C7          1.1170   -1.1580    2.5680 c3        1 MOL      0.038354
     21 C8          0.2020   -0.0520    3.0780 c         1 MOL      0.315177
     22 O5          0.4560    0.3640    4.1930 o         1 MOL     -0.494599
     23 C9          0.5180   -2.4830    3.2000 c3        1 MOL     -0.139941
     24 C10         0.8680   -3.7820    2.4940 c3        1 MOL     -0.180871
     25 C11         2.3310   -4.2730    2.5840 c3        1 MOL      0.005548
     26 C12         2.7510   -4.8200    1.2290 c3        1 MOL      0.226286
     27 N3          4.0950   -5.4510    1.2900 n4        1 MOL     -0.404238
     28 H8          2.7600   -0.7430    3.8120 hn        1 MOL      0.239495
     29 H9          0.9280   -1.3400    1.5070 h1        1 MOL      0.068901
     30 H10        -0.5520   -2.3460    3.3730 hc        1 MOL      0.088102
     31 H11         0.9990   -2.5450    4.1730 hc        1 MOL      0.088102
     32 H12         0.5330   -3.6770    1.4580 hc        1 MOL      0.088621
     33 H13         0.2660   -4.5950    2.9060 hc        1 MOL      0.088621
     34 H14         2.4480   -5.0570    3.3420 hc        1 MOL      0.016345
     35 H15         3.0070   -3.4470    2.7840 hc        1 MOL      0.016345
     36 H16         2.8340   -3.9490    0.5750 hx        1 MOL     -0.012369
     37 H17         2.0190   -5.5470    0.8690 hx        1 MOL     -0.012369
     38 H18         4.2990   -5.8170    0.3750 hn        1 MOL      0.303483
     39 H19         4.8850   -4.8420    1.4590 hn        1 MOL      0.303483
     40 H20         3.9810   -6.1740    1.9910 hn        1 MOL      0.303483
     41 N4         -0.8370    0.4470    2.4250 n         1 MOL     -0.109078
     42 C13        -1.3620    0.1320    1.1100 c3        1 MOL     -0.162474
     43 C14        -1.6520   -1.3540    0.7050 c         1 MOL      0.092102
     44 O6         -1.0150   -1.8330   -0.1910 o         1 MOL     -0.275185
     45 C15        -0.6090    0.8970   -0.0450 c3        1 MOL     -0.213649
     46 C16        -0.5510    2.4850    0.0910 c         1 MOL      0.845832
     47 O7         -1.1900    3.1980    0.8970 o         1 MOL     -0.855003
     48 O8          0.0680    3.1600   -0.7440 o         1 MOL     -0.855003
     49 H21        -1.3270    1.0650    3.0520 hn        1 MOL      0.243960
     50 H22        -2.2930    0.6800    0.9300 h1        1 MOL      0.100116
     51 H23        -0.9980    0.6670   -1.0440 hc        1 MOL      0.069345
     52 H24         0.3660    0.4190   -0.0500 hc        1 MOL      0.069345
     53 N5         -2.6300   -2.0380    1.3060 n         1 MOL     -0.226597
     54 C17        -3.6650   -1.4450    2.1710 c3        1 MOL      0.010713
     55 C18        -4.5940   -2.4360    2.8160 c         1 MOL      0.521663
     56 O9         -4.4030   -3.6430    2.7710 o         1 MOL     -0.538933
     57 H25        -2.7340   -2.9790    0.9410 hn        1 MOL      0.220438
     58 H26        -4.1860   -0.6770    1.6000 h1        1 MOL      0.050350
     59 H27        -3.1900   -0.9010    2.9840 h1        1 MOL      0.050350
     60 N6         -5.6810   -2.0310    3.4600 n         1 MOL     -0.355557
     61 C19        -6.1360   -0.7180    3.6400 c3        1 MOL     -0.060938
     62 C20        -6.9130   -0.2440    2.4260 c         1 MOL      0.495112
     63 O10        -7.8250   -0.8770    1.8700 o         1 MOL     -0.437660
     64 C21        -7.0060   -0.5710    4.9020 c3        1 MOL     -0.060316
     65 C22        -8.2180   -1.5160    4.9450 c         1 MOL      0.607230
     66 O11        -8.2370   -2.8060    5.0080 o         1 MOL     -0.602919
     67 O12        -9.3050   -0.8500    4.8980 o         1 MOL     -0.602919
     68 H28        -6.2920   -2.7880    3.7240 hn        1 MOL      0.259182
     69 H29        -5.3180   -0.0000    3.7180 h1        1 MOL      0.042673
     70 H30        -7.3940    0.4450    5.0040 hc        1 MOL      0.022858
     71 H31        -6.3850   -0.7410    5.7780 hc        1 MOL      0.022858
     72 N7         -6.7510    1.0780    2.1160 n         1 MOL     -0.320502
     73 C23        -7.6080    1.8680    1.2000 c3        1 MOL     -0.168971
     74 C24        -7.3010    1.5490   -0.3200 c         1 MOL      0.390903
     75 O13        -8.2930    1.5330   -1.0520 o         1 MOL     -0.478769
     76 H32        -5.9970    1.6310    2.5110 hn        1 MOL      0.217544
     77 H33        -7.5550    2.9490    1.3560 h1        1 MOL      0.144319
     78 H34        -8.6850    1.7990    1.3560 h1        1 MOL      0.144319
     79 N8         -6.1130    1.1540   -0.7720 n         1 MOL     -0.262139
     80 C25        -5.9410    0.2540   -1.9040 c3        1 MOL     -0.274302
     81 C26        -4.7470   -0.6830   -1.7400 c         1 MOL      0.434330
     82 O14        -3.7780   -0.3070   -1.1030 o         1 MOL     -0.242677
     83 C27        -5.8940    1.0200   -3.2180 c3        1 MOL      0.167929
     84 C28        -4.7470    2.0390   -3.2410 c3        1 MOL     -0.018857
     85 O15        -7.1760    1.6030   -3.4860 oh        1 MOL     -0.572899
     86 H35        -5.3320    1.3210   -0.1680 hn        1 MOL      0.202450
     87 H36        -6.7740   -0.4530   -1.8960 h1        1 MOL      0.199345
     88 H37        -5.6120    0.3870   -4.0480 h1        1 MOL      0.097965
     89 H38        -7.4630    1.7590   -2.5800 ho        1 MOL      0.382097
     90 H39        -4.6810    2.4490   -4.2560 hc        1 MOL     -0.002776
     91 H40        -4.8700    2.8960   -2.5830 hc        1 MOL     -0.002776
     92 H41        -3.7530    1.6900   -2.9780 hc        1 MOL     -0.002776
     93 N9         -4.7380   -1.8860   -2.2660 n         1 MOL     -0.331766
     94 C29        -3.6860   -2.8360   -2.0390 c3        1 MOL     -0.239739
     95 C30        -2.3870   -2.6180   -2.9380 c         1 MOL      0.337525
     96 O16        -1.5490   -3.5510   -3.1060 o         1 MOL     -0.551030
     97 C31        -4.2900   -4.2930   -2.1280 c3        1 MOL      0.206255
     98 C32        -4.8290   -4.9000   -3.4670 c3        1 MOL      0.143610
     99 C33        -5.3040   -4.4060   -0.9720 c3        1 MOL     -0.359584
    100 C34        -5.0600   -6.4070   -3.2560 c3        1 MOL     -0.278649
    101 H42        -5.5030   -2.1480   -2.8730 hn        1 MOL      0.264207
    102 H43        -3.3070   -2.8330   -1.0210 h1        1 MOL      0.215460
    103 H44        -3.4940   -4.9620   -1.8300 hc        1 MOL      0.013331
    104 H45        -4.2070   -4.8040   -4.3550 hc        1 MOL     -0.016077
    105 H46        -5.7370   -4.3930   -3.7980 hc        1 MOL     -0.016077
    106 H47        -4.9230   -4.1100    0.0130 hc        1 MOL      0.090391
    107 H48        -6.2010   -3.8280   -1.1820 hc        1 MOL      0.090391
    108 H49        -5.4750   -5.4640   -0.7590 hc        1 MOL      0.090391
    109 H50        -4.1980   -6.8320   -2.7450 hc        1 MOL      0.070313
    110 H51        -5.9540   -6.6310   -2.6620 hc        1 MOL      0.070313
    111 H52        -5.1010   -6.9300   -4.2110 hc        1 MOL      0.070313
    112 N10        -2.1230   -1.3980   -3.3370 n         1 MOL      0.089366
    113 C35        -1.1280   -1.0660   -4.3490 c3        1 MOL     -0.137040
    114 C36         0.3230   -1.2870   -3.9810 c         1 MOL      0.322433
    115 O17         1.1820   -1.4110   -4.8510 o         1 MOL     -0.536627
    116 C37        -1.3100    0.3460   -4.8950 c3        1 MOL      0.196214
    117 C38        -0.9030    1.5010   -4.0170 c3        1 MOL     -0.038101
    118 O18        -2.6340    0.5140   -5.1210 oh        1 MOL     -0.649450
    119 H53        -2.7660   -0.6570   -3.0980 hn        1 MOL      0.030868
    120 H54        -1.2850   -1.8270   -5.1130 h1        1 MOL      0.129459
    121 H55        -0.7730    0.4240   -5.8390 h1        1 MOL      0.061626
    122 H56        -2.8120    1.3110   -5.6410 ho        1 MOL      0.427009
    123 H57         0.1640    1.6120   -3.8180 hc        1 MOL      0.023808
    124 H58        -1.3140    2.4190   -4.4560 hc        1 MOL      0.023808
    125 H59        -1.3560    1.3250   -3.0390 hc        1 MOL      0.023808
    126 N11         0.5500   -1.3780   -2.6790 n         1 MOL      0.226596
    127 C39         1.9690   -1.4700   -2.1530 c3        1 MOL      0.027076
    128 C40         2.9360   -0.3090   -2.5240 c         1 MOL      0.325519
    129 O19         2.5520    0.6800   -3.1970 o         1 MOL     -0.460100
    130 C41         2.6740   -2.8700   -2.3470 c3        1 MOL      0.200329
    131 C42         1.7420   -3.9860   -2.0050 c3        1 MOL     -0.436744
    132 O20         3.7430   -3.1700   -1.5250 oh        1 MOL     -0.692920
    133 H60        -0.2200   -1.3200   -2.0330 hn        1 MOL     -0.166397
    134 H61         1.8870   -1.3910   -1.0720 h1        1 MOL      0.133318
    135 H62         2.9110   -2.9210   -3.4090 h1        1 MOL      0.019111
    136 H63         4.2460   -3.8650   -1.9520 ho        1 MOL      0.381128
    137 H64         2.1210   -4.9750   -2.2880 hc        1 MOL      0.125870
    138 H65         1.3710   -3.8880   -0.9910 hc        1 MOL      0.125870
    139 H66         0.9130   -3.8830   -2.6990 hc        1 MOL      0.125870
    140 N12         4.1950   -0.3780   -2.0140 n         1 MOL     -0.311969
    141 C43         5.3520    0.5220   -2.2230 c3        1 MOL      0.048878
    142 C44         5.3770    1.7760   -1.2780 c         1 MOL      0.438295
    143 O21         6.0850    2.7180   -1.6190 o         1 MOL     -0.552922
    144 C45         6.7420   -0.2370   -2.0670 c3        1 MOL     -0.251007
    145 C46         7.0640   -1.3080   -3.1610 c3        1 MOL      0.061209
    146 C47         8.2960   -2.1850   -2.9280 c3        1 MOL     -0.159628
    147 C48         8.6290   -3.3490   -3.8690 c3        1 MOL     -0.021793
    148 N13         7.7240   -4.4420   -3.6100 n4        1 MOL     -0.316416
    149 H67         4.3400   -1.2420   -1.5080 hn        1 MOL      0.340991
    150 H68         5.3010    0.9280   -3.2330 h1        1 MOL      0.091696
    151 H69         6.6920   -0.7290   -1.1040 hc        1 MOL      0.102293
    152 H70         7.5250    0.4970   -2.2350 hc        1 MOL      0.102293
    153 H71         7.1960   -0.8500   -4.1360 hc        1 MOL      0.018552
    154 H72         6.1960   -1.9690   -3.2670 hc        1 MOL      0.018552
    155 H73         8.2990   -2.5270   -1.8860 hc        1 MOL      0.075985
    156 H74         9.2340   -1.6380   -3.0410 hc        1 MOL      0.075985
    157 H75         9.6760   -3.6140   -3.7020 hx        1 MOL      0.121571
    158 H76         8.6090   -2.9690   -4.8910 hx        1 MOL      0.121571
    159 H77         7.9620   -5.3130   -4.0650 hn        1 MOL      0.272638
    160 H78         7.8130   -4.7040   -2.6390 hn        1 MOL      0.272638
    161 H79         6.7590   -4.2100   -3.7660 hn        1 MOL      0.272638
    162 N14         4.6920    1.7580   -0.1500 n         1 MOL     -0.073433
    163 C49         4.5330    2.9160    0.7040 c3        1 MOL     -0.122178
    164 C50         5.7280    3.1140    1.6890 c         1 MOL      0.485058
    165 O22         5.6570    2.7860    2.8870 o         1 MOL     -0.471421
    166 C51         3.2050    2.7860    1.4630 c3        1 MOL      0.244380
    167 C52         2.7500    4.0780    2.1090 c3        1 MOL     -0.208622
    168 C53         2.2520    5.1430    1.1050 c         1 MOL      0.815758
    169 O23         3.0990    5.8890    0.5050 o         1 MOL     -0.780778
    170 O24         1.0620    5.3070    0.9610 o         1 MOL     -0.780778
    171 H80         4.3400    0.8560    0.1030 hn        1 MOL     -0.047586
    172 H81         4.3900    3.8360    0.1330 h1        1 MOL      0.063369
    173 H82         3.2330    1.9570    2.1650 hc        1 MOL      0.025029
    174 H83         2.4240    2.5750    0.7290 hc        1 MOL      0.025029
    175 H84         3.5490    4.4920    2.7220 hc        1 MOL      0.036501
    176 H85         1.9780    3.8020    2.8290 hc        1 MOL      0.036501
    177 N15         6.8140    3.5750    1.0540 n         1 MOL     -0.398005
    178 C54         8.1830    3.3410    1.6350 c3        1 MOL     -0.125517
    179 H86         8.9230    3.8890    1.0520 h1        1 MOL      0.085069
    180 H87         8.2040    3.6890    2.6680 h1        1 MOL      0.085069
    181 H88         8.4140    2.2760    1.6050 h1        1 MOL      0.085069
    182 H89         6.7200    3.6520    0.0530 hn        1 MOL      0.306956
    183 Ca1        -1.2060    5.4660   -0.2680 Ca        1 MOL      1.772970
    184 O25        -0.4000    7.7980    0.5290 oh        1 MOL     -0.843759
    185 H90        -0.2840    8.6830    0.1770 ho        1 MOL      0.423746
    186 H91         0.3970    7.6390    1.0360 ho        1 MOL      0.423746
    187 O26        -1.7580    7.4620   -2.0890 oh        1 MOL     -0.843759
    188 O27        -1.7860    4.3770   -2.6530 oh        1 MOL     -0.843759
    189 H92        -1.9300    8.3500   -1.7740 ho        1 MOL      0.423746
    190 H93        -1.5040    3.4760   -2.7810 ho        1 MOL      0.423746
    191 H94        -1.5540    7.5680   -3.0110 ho        1 MOL      0.423746
    192 H95        -2.5180    4.4960   -3.2580 ho        1 MOL      0.423746
    193 O28        -3.8110    5.5920   -0.9940 oh        1 MOL     -0.843759
    194 H96        -4.3870    6.3570   -0.9070 ho        1 MOL      0.423746
    195 H97        -4.2530    4.9070   -0.4990 ho        1 MOL      0.423746
    196 O29         1.4330    6.0870   -1.7420 oh        1 MOL     -0.843759
    197 H98         1.8070    5.4300   -2.3350 ho        1 MOL      0.423746
    198 H99         1.9450    6.0030   -0.9400 ho        1 MOL      0.423746
@<TRIPOS>BOND
     1    1    2 1   
     2    1    4 1   
     3    1    5 1   
     4    1    6 1   
     5    2    3 2   
     6    2    7 1   
     7    7    8 1   
     8    7   15 1   
     9    8    9 1   
    10    8   11 1   
    11    8   16 1   
    12    9   10 2   
    13    9   19 1   
    14   11   12 1   
    15   11   17 1   
    16   11   18 1   
    17   12   13 1   
    18   12   14 1   
    19   19   20 1   
    20   19   28 1   
    21   20   21 1   
    22   20   23 1   
    23   20   29 1   
    24   21   22 2   
    25   21   41 1   
    26   23   24 1   
    27   23   30 1   
    28   23   31 1   
    29   24   25 1   
    30   24   32 1   
    31   24   33 1   
    32   25   26 1   
    33   25   34 1   
    34   25   35 1   
    35   26   27 1   
    36   26   36 1   
    37   26   37 1   
    38   27   38 1   
    39   27   39 1   
    40   27   40 1   
    41   41   42 1   
    42   41   49 1   
    43   42   43 1   
    44   42   45 1   
    45   42   50 1   
    46   43   44 2   
    47   43   53 1   
    48   45   46 1   
    49   45   51 1   
    50   45   52 1   
    51   46   47 1   
    52   46   48 1   
    53   53   54 1   
    54   53   57 1   
    55   54   55 1   
    56   54   58 1   
    57   54   59 1   
    58   55   56 2   
    59   55   60 1   
    60   60   61 1   
    61   60   68 1   
    62   61   62 1   
    63   61   64 1   
    64   61   69 1   
    65   62   63 2   
    66   62   72 1   
    67   64   65 1   
    68   64   70 1   
    69   64   71 1   
    70   65   66 1   
    71   65   67 1   
    72   72   73 1   
    73   72   76 1   
    74   73   74 1   
    75   73   77 1   
    76   73   78 1   
    77   74   75 2   
    78   74   79 1   
    79   79   80 1   
    80   79   86 1   
    81   80   81 1   
    82   80   83 1   
    83   80   87 1   
    84   81   82 2   
    85   81   93 1   
    86   83   84 1   
    87   83   85 1   
    88   83   88 1   
    89   84   90 1   
    90   84   91 1   
    91   84   92 1   
    92   85   89 1   
    93   93   94 1   
    94   93  101 1   
    95   94   95 1   
    96   94   97 1   
    97   94  102 1   
    98   95   96 2   
    99   95  112 1   
   100   97   98 1   
   101   97   99 1   
   102   97  103 1   
   103   98  100 1   
   104   98  104 1   
   105   98  105 1   
   106   99  106 1   
   107   99  107 1   
   108   99  108 1   
   109  100  109 1   
   110  100  110 1   
   111  100  111 1   
   112  112  113 1   
   113  112  119 1   
   114  113  114 1   
   115  113  116 1   
   116  113  120 1   
   117  114  115 2   
   118  114  126 1   
   119  116  117 1   
   120  116  118 1   
   121  116  121 1   
   122  117  123 1   
   123  117  124 1   
   124  117  125 1   
   125  118  122 1   
   126  126  127 1   
   127  126  133 1   
   128  127  128 1   
   129  127  130 1   
   130  127  134 1   
   131  128  129 2   
   132  128  140 1   
   133  130  131 1   
   134  130  132 1   
   135  130  135 1   
   136  131  137 1   
   137  131  138 1   
   138  131  139 1   
   139  132  136 1   
   140  140  141 1   
   141  140  149 1   
   142  141  142 1   
   143  141  144 1   
   144  141  150 1   
   145  142  143 2   
   146  142  162 1   
   147  144  145 1   
   148  144  151 1   
   149  144  152 1   
   150  145  146 1   
   151  145  153 1   
   152  145  154 1   
   153  146  147 1   
   154  146  155 1   
   155  146  156 1   
   156  147  148 1   
   157  147  157 1   
   158  147  158 1   
   159  148  159 1   
   160  148  160 1   
   161  148  161 1   
   162  162  163 1   
   163  162  171 1   
   164  163  164 1   
   165  163  166 1   
   166  163  172 1   
   167  164  165 2   
   168  164  177 1   
   169  166  167 1   
   170  166  173 1   
   171  166  174 1   
   172  167  168 1   
   173  167  175 1   
   174  167  176 1   
   175  168  169 1   
   176  168  170 1   
   177  177  178 1   
   178  177  182 1   
   179  178  179 1   
   180  178  180 1   
   181  178  181 1   
   182  184  185 1   
   183  184  186 1   
   184  187  189 1   
   185  187  191 1   
   186  188  190 1   
   187  188  192 1   
   188  193  194 1   
   189  193  195 1   
   190  196  197 1   
   191  196  198 1   
@<TRIPOS>SUBSTRUCTURE
     1 MOL         1 TEMP              0 ****  ****    0 ROOT
