@<TRIPOS>MOLECULE
MOL
  201   193     1     0     0
SMALL
resp


@<TRIPOS>ATOM
      1 C1          1.8690   -4.7460   -1.8840 c3        1 MOL     -0.759472
      2 C2          1.1350   -3.5680   -1.2630 c         1 MOL      1.023338
      3 O1          1.6180   -2.4140   -1.4120 o         1 MOL     -0.702691
      4 H1          2.9420   -4.5560   -1.8640 hc        1 MOL      0.210801
      5 H2          1.6510   -5.6510   -1.3170 hc        1 MOL      0.210801
      6 H3          1.5430   -4.8760   -2.9150 hc        1 MOL      0.210801
      7 N1         -0.0780   -3.6080   -0.6800 n         1 MOL     -0.846658
      8 C3         -0.8440   -4.8530   -0.4690 c3        1 MOL      0.593811
      9 C4         -1.9480   -5.2130   -1.4780 c         1 MOL      0.254339
     10 O2         -2.5210   -6.3240   -1.3630 o         1 MOL     -0.435033
     11 C5         -1.2790   -4.8200    0.9710 c3        1 MOL     -0.410996
     12 C6         -1.7540   -6.0900    1.5970 c         1 MOL      0.661144
     13 O3         -2.9620   -6.2690    1.8870 o         1 MOL     -0.648450
     14 O4         -0.9730   -7.0130    1.7440 o         1 MOL     -0.648450
     15 H4         -0.2840   -2.7730   -0.1460 hn        1 MOL      0.338543
     16 H5         -0.2820   -5.7880   -0.4330 h1        1 MOL     -0.112081
     17 H6         -2.1460   -4.1550    0.9950 hc        1 MOL      0.108215
     18 H7         -0.4860   -4.4210    1.6070 hc        1 MOL      0.108215
     19 N2         -2.3670   -4.2620   -2.3460 n         1 MOL     -0.094810
     20 C7         -3.4420   -4.5550   -3.3450 c3        1 MOL     -0.261273
     21 C8         -4.9020   -4.4320   -2.7910 c         1 MOL      0.445741
     22 O5         -5.8810   -5.0420   -3.3110 o         1 MOL     -0.542786
     23 C9         -3.1650   -3.7200   -4.5910 c3        1 MOL      0.207610
     24 C10        -3.2150   -2.1960   -4.3830 c3        1 MOL      0.261405
     25 C11        -1.7630   -3.9670   -5.1680 c3        1 MOL     -0.282639
     26 C12        -3.5360   -1.3440   -5.5770 c3        1 MOL     -0.198764
     27 H8         -1.8610   -3.3920   -2.3690 hn        1 MOL      0.106310
     28 H9         -3.3410   -5.6120   -3.6020 h1        1 MOL      0.114029
     29 H10        -3.8570   -3.9660   -5.3950 hc        1 MOL      0.026207
     30 H11        -2.3200   -1.7480   -3.9430 hc        1 MOL     -0.066355
     31 H12        -4.0310   -1.9020   -3.7300 hc        1 MOL     -0.066355
     32 H13        -1.6970   -5.0560   -5.2380 hc        1 MOL      0.037548
     33 H14        -1.6680   -3.4360   -6.1020 hc        1 MOL      0.037548
     34 H15        -0.9200   -3.6420   -4.5610 hc        1 MOL      0.037548
     35 H16        -4.3540   -1.9730   -5.9560 hc        1 MOL      0.031857
     36 H17        -3.8820   -0.3250   -5.3820 hc        1 MOL      0.031857
     37 H18        -2.7760   -1.2540   -6.3460 hc        1 MOL      0.031857
     38 N3         -5.1380   -3.4140   -1.9640 n         1 MOL     -0.091715
     39 C13        -6.4960   -2.8680   -1.6540 c3        1 MOL     -0.152190
     40 C14        -6.3910   -2.0770   -0.3500 c         1 MOL      0.567281
     41 O6         -5.3050   -1.7370    0.1230 o         1 MOL     -0.503936
     42 C15        -6.8140   -1.9450   -2.8240 c3        1 MOL     -0.108987
     43 C16        -8.2660   -1.6520   -2.7140 c         1 MOL      0.652179
     44 O7         -9.0130   -2.4880   -3.2350 o         1 MOL     -0.663109
     45 O8         -8.6950   -0.6870   -2.0210 o         1 MOL     -0.663109
     46 H19        -4.3840   -2.9160   -1.5050 hn        1 MOL      0.076978
     47 H20        -7.1150   -3.7490   -1.5140 h1        1 MOL      0.140819
     48 H21        -6.5810   -2.3800   -3.8030 hc        1 MOL      0.027937
     49 H22        -6.2410   -1.0140   -2.7850 hc        1 MOL      0.027937
     50 N4         -7.4890   -1.8150    0.3210 n         1 MOL     -0.519238
     51 C17        -7.5980   -1.2110    1.6530 c3        1 MOL     -0.074301
     52 C18        -7.6120    0.3100    1.6010 c         1 MOL      0.502960
     53 O9         -7.5770    1.0310    2.5960 o         1 MOL     -0.599953
     54 H23        -8.3810   -2.0030   -0.0980 hn        1 MOL      0.357455
     55 H24        -6.7730   -1.4650    2.3250 h1        1 MOL      0.109883
     56 H25        -8.4900   -1.5510    2.1720 h1        1 MOL      0.109883
     57 N5         -7.6350    0.9040    0.4380 n         1 MOL      0.022463
     58 C19        -7.6830    2.3700    0.1850 c3        1 MOL      0.034699
     59 C20        -6.4110    2.8530   -0.7090 c         1 MOL      0.642108
     60 O10        -6.6940    3.4210   -1.7720 o         1 MOL     -0.573961
     61 C21        -9.0710    2.7960   -0.3130 c3        1 MOL     -0.273612
     62 C22       -10.3040    2.4490    0.4530 c         1 MOL      0.641764
     63 O11       -10.9970    1.4560    0.0950 o         1 MOL     -0.601617
     64 O12       -10.5190    3.0220    1.5920 o         1 MOL     -0.601617
     65 H26        -7.7090    0.3090   -0.3700 hn        1 MOL      0.093046
     66 H27        -7.7050    2.8810    1.1480 h1        1 MOL      0.107098
     67 H28        -9.1970    2.3260   -1.2880 hc        1 MOL      0.062542
     68 H29        -9.1610    3.8870   -0.3980 hc        1 MOL      0.062542
     69 N6         -5.1570    2.6230   -0.3880 n         1 MOL     -0.700077
     70 C23        -4.5520    2.2400    0.8970 c3        1 MOL      0.477314
     71 C24        -4.7040    3.2370    2.1140 c         1 MOL      0.326701
     72 O13        -5.2100    4.3510    1.8560 o         1 MOL     -0.528126
     73 H30        -4.4320    3.0040   -0.9790 hn        1 MOL      0.334858
     74 H31        -3.4720    2.1500    0.7440 h1        1 MOL     -0.076217
     75 H32        -4.9930    1.2860    1.2090 h1        1 MOL     -0.076217
     76 N7         -4.4120    2.9440    3.3360 n         1 MOL     -0.338384
     77 C25        -3.7990    1.7280    3.9260 c3        1 MOL      0.013949
     78 C26        -2.5320    1.2850    3.2270 c         1 MOL      0.458526
     79 O14        -2.4280    0.1760    2.6860 o         1 MOL     -0.418259
     80 C27        -4.8760    0.6360    4.0750 c3        1 MOL     -0.084378
     81 C28        -4.4620   -0.4770    5.0590 c3        1 MOL     -0.124830
     82 C29        -5.5230   -1.4530    5.3050 c         1 MOL      0.541808
     83 N8         -5.4530   -2.6330    4.7700 n         1 MOL     -0.696058
     84 O15        -6.5540   -1.1230    5.9280 o         1 MOL     -0.578825
     85 H33        -4.4590    3.7260    3.9740 hn        1 MOL      0.274106
     86 H34        -3.3660    1.9980    4.8840 h1        1 MOL      0.064687
     87 H35        -5.0820    0.1550    3.1260 hc        1 MOL      0.084426
     88 H36        -5.8250    1.1180    4.3370 hc        1 MOL      0.084426
     89 H37        -4.2330    0.0320    5.9980 hc        1 MOL      0.031972
     90 H38        -3.5130   -0.9280    4.7630 hc        1 MOL      0.031972
     91 H39        -4.6270   -2.9400    4.2710 hn        1 MOL      0.354110
     92 H40        -6.2730   -3.1970    4.9360 hn        1 MOL      0.354110
     93 N9         -1.4600    2.1270    3.4020 n         1 MOL     -0.475062
     94 C30        -0.2670    1.8440    2.6110 c3        1 MOL      0.040195
     95 C31        -0.5330    2.3730    1.1780 c         1 MOL      0.319984
     96 O16        -0.8950    3.5560    1.0410 o         1 MOL     -0.458787
     97 C32         0.9770    2.6480    3.1550 c3        1 MOL      0.367173
     98 C33         1.6900    1.7400    4.2000 c3        1 MOL     -0.266211
     99 C34         0.6360    3.9960    3.7680 c3        1 MOL     -0.266211
    100 H41        -1.5170    2.9750    3.9530 hn        1 MOL      0.295209
    101 H42        -0.0490    0.7880    2.4900 h1        1 MOL      0.057864
    102 H43         1.6590    2.8800    2.3360 hc        1 MOL     -0.041807
    103 H44         1.9420    0.7280    3.8650 hc        1 MOL      0.056148
    104 H45         2.6990    2.1320    4.3520 hc        1 MOL      0.056148
    105 H46         1.1510    1.6730    5.1450 hc        1 MOL      0.056148
    106 H47        -0.1740    3.8220    4.4730 hc        1 MOL      0.056148
    107 H48         1.4540    4.4920    4.2860 hc        1 MOL      0.056148
    108 H49         0.2280    4.6230    2.9740 hc        1 MOL      0.056148
    109 N10        -0.3750    1.5160    0.1640 n         1 MOL     -0.630483
    110 C35        -0.8660    1.6730   -1.2590 c3        1 MOL      0.000869
    111 C36         0.1490    2.4990   -2.1140 c         1 MOL      0.616054
    112 O17        -0.0280    2.5780   -3.3440 o         1 MOL     -0.563630
    113 C37        -1.0220    0.2700   -1.7110 c3        1 MOL     -0.128554
    114 C38        -2.0250   -0.4910   -0.9440 c         1 MOL      0.573948
    115 N11        -3.2820   -0.3770   -1.2960 n         1 MOL     -0.305777
    116 O18        -1.6830   -1.1510    0.0670 o         1 MOL     -0.571896
    117 H50         0.0020    0.6100    0.4060 hn        1 MOL      0.374709
    118 H51        -1.8250    2.1870   -1.3130 h1        1 MOL      0.103866
    119 H52        -0.0200   -0.1670   -1.6460 hc        1 MOL      0.052604
    120 H53        -1.2980    0.2950   -2.7590 hc        1 MOL      0.052604
    121 H54        -3.5120    0.1160   -2.1390 hn        1 MOL      0.216721
    122 H55        -4.0230   -0.5800   -0.6460 hn        1 MOL      0.216721
    123 N12         1.1310    3.1570   -1.5150 n         1 MOL     -0.361661
    124 C39         2.3640    3.6160   -2.1020 c3        1 MOL      0.157322
    125 C40         3.4890    3.7000   -1.0650 c         1 MOL      0.579142
    126 O19         3.1950    3.8030    0.1160 o         1 MOL     -0.469467
    127 C41         2.1630    4.9240   -2.9000 c3        1 MOL      0.091820
    128 C42         1.8110    6.1740   -2.1400 ca        1 MOL     -0.058511
    129 C43         2.9010    7.0190   -1.9530 ca        1 MOL     -0.067799
    130 C44         0.5690    6.3640   -1.5660 ca        1 MOL     -0.067799
    131 C45         2.7320    8.1380   -1.1010 ca        1 MOL     -0.326782
    132 C46         0.3830    7.5420   -0.8550 ca        1 MOL     -0.326782
    133 C47         1.4690    8.4240   -0.5580 ca        1 MOL      0.407172
    134 O20         1.2520    9.5040    0.2390 oh        1 MOL     -0.514983
    135 H56         1.0440    3.1540   -0.5150 hn        1 MOL      0.244165
    136 H57         2.6780    2.8100   -2.7670 h1        1 MOL     -0.017572
    137 H58         1.4460    4.6830   -3.6910 hc        1 MOL     -0.025765
    138 H59         3.0870    5.1390   -3.4450 hc        1 MOL     -0.025765
    139 H60         3.8510    6.7650   -2.3850 ha        1 MOL      0.119679
    140 H61        -0.2580    5.7090   -1.8000 ha        1 MOL      0.119679
    141 H62         3.5500    8.8130   -0.8690 ha        1 MOL      0.157379
    142 H63        -0.5860    7.8510   -0.4790 ha        1 MOL      0.157379
    143 H64         0.3910    9.4630    0.6430 ho        1 MOL      0.362276
    144 N13         4.8070    3.7300   -1.4180 n         1 MOL     -0.524623
    145 C48         5.9450    3.8350   -0.5390 c3        1 MOL     -0.048085
    146 C49         7.0120    2.9930   -1.1480 c         1 MOL      0.503344
    147 O21         7.6810    3.3610   -2.1950 o         1 MOL     -0.505893
    148 C50         6.3640    5.2700   -0.1650 c3        1 MOL     -0.054927
    149 C51         7.6080    5.2680    0.6510 c3        1 MOL     -0.292527
    150 C52         8.1330    6.6890    0.8590 c         1 MOL      0.763257
    151 O22         7.3370    7.5150    1.4010 o         1 MOL     -0.721089
    152 O23         9.2360    7.0490    0.4760 o         1 MOL     -0.721089
    153 H65         5.0530    3.2620   -2.2730 hn        1 MOL      0.280185
    154 H66         5.7970    3.3330    0.4170 h1        1 MOL      0.057895
    155 H67         5.5820    5.7420    0.4230 hc        1 MOL      0.093946
    156 H68         6.5270    5.8150   -1.0840 hc        1 MOL      0.093946
    157 H69         8.3620    4.7180    0.0800 hc        1 MOL      0.032500
    158 H70         7.4320    4.7390    1.5840 hc        1 MOL      0.032500
    159 N14         7.0670    1.7700   -0.6410 n         1 MOL     -0.333637
    160 C53         7.7430    0.6540   -1.3320 c3        1 MOL      0.013253
    161 C54         7.0520    0.2410   -2.6700 c         1 MOL      0.422676
    162 O24         7.4890   -0.2010   -3.6920 o         1 MOL     -0.507633
    163 C55         7.9070   -0.5490   -0.3780 c3        1 MOL      0.074644
    164 C56         9.1830   -1.3320   -0.6720 c3        1 MOL     -0.069849
    165 C57         9.0400   -2.6820   -0.0800 c         1 MOL      0.671747
    166 O25         8.5330   -3.6670   -0.6560 o         1 MOL     -0.721508
    167 O26         9.2650   -2.8420    1.1610 o         1 MOL     -0.721508
    168 H71         6.4090    1.5390    0.0910 hn        1 MOL      0.218865
    169 H72         8.7130    1.0250   -1.6890 h1        1 MOL      0.077889
    170 H73         7.0860   -1.2530   -0.5380 hc        1 MOL      0.019307
    171 H74         8.0140   -0.1990    0.6480 hc        1 MOL      0.019307
    172 H75         9.9970   -0.7580   -0.2360 hc        1 MOL     -0.002719
    173 H76         9.3170   -1.5190   -1.7330 hc        1 MOL     -0.002719
    174 N15         5.7570    0.3660   -2.5480 n         1 MOL     -0.223742
    175 C58         4.8340    0.2220   -3.6590 c3        1 MOL      0.295782
    176 H77         3.9450    0.8250   -3.4720 h1        1 MOL     -0.035530
    177 H78         5.3150    0.5590   -4.5770 h1        1 MOL     -0.035530
    178 H79         4.5480   -0.8240   -3.7610 h1        1 MOL     -0.035530
    179 H80         5.4490    0.9090   -1.7530 hn        1 MOL      0.115192
    180 Ca1         7.5520   -4.7500    1.6780 Ca        1 MOL      1.635993
    181 O27         9.8860   -6.1330    0.8690 oh        1 MOL     -0.729370
    182 H81        10.5000   -5.4150    0.7130 ho        1 MOL      0.325346
    183 H82        10.4340   -6.8740    1.1390 ho        1 MOL      0.325346
    184 O28         7.6770   -7.3780    2.3710 oh        1 MOL     -0.729370
    185 H83         7.8180   -7.9130    3.1470 ho        1 MOL      0.325346
    186 H84         8.1380   -7.8410    1.6660 ho        1 MOL      0.325346
    187 O29         5.7250   -3.2900    0.4640 oh        1 MOL     -0.729370
    188 H85         5.3640   -2.6170    1.0440 ho        1 MOL      0.325346
    189 H86         5.0010   -3.5060   -0.1260 ho        1 MOL      0.325346
    190 O30         6.6580   -5.9870   -0.5000 oh        1 MOL     -0.729370
    191 H87         7.3880   -5.7470   -1.0720 ho        1 MOL      0.325346
    192 H88         6.4780   -6.9080   -0.7100 ho        1 MOL      0.325346
    193 O31         9.2270   -4.6290    3.8970 oh        1 MOL     -0.729370
    194 H89         9.7420   -3.8210    3.9140 ho        1 MOL      0.325346
    195 H90         9.6700   -5.1990    4.5200 ho        1 MOL      0.325346
    196 O32         5.2680   -5.6360    2.9280 oh        1 MOL     -0.729370
    197 H91         4.4600   -5.1380    2.8620 ho        1 MOL      0.325346
    198 H92         5.1080   -6.2760    3.6230 ho        1 MOL      0.325346
    199 O33         6.5590   -3.0030    3.7760 oh        1 MOL     -0.729370
    200 H93         7.3980   -2.5540    3.8660 ho        1 MOL      0.325346
    201 H94         5.9920   -2.5970    4.4300 ho        1 MOL      0.325346
@<TRIPOS>BOND
     1    1    2 1   
     2    1    4 1   
     3    1    5 1   
     4    1    6 1   
     5    2    3 2   
     6    2    7 1   
     7    7    8 1   
     8    7   15 1   
     9    8    9 1   
    10    8   11 1   
    11    8   16 1   
    12    9   10 2   
    13    9   19 1   
    14   11   12 1   
    15   11   17 1   
    16   11   18 1   
    17   12   13 1   
    18   12   14 1   
    19   19   20 1   
    20   19   27 1   
    21   20   21 1   
    22   20   23 1   
    23   20   28 1   
    24   21   22 2   
    25   21   38 1   
    26   23   24 1   
    27   23   25 1   
    28   23   29 1   
    29   24   26 1   
    30   24   30 1   
    31   24   31 1   
    32   25   32 1   
    33   25   33 1   
    34   25   34 1   
    35   26   35 1   
    36   26   36 1   
    37   26   37 1   
    38   38   39 1   
    39   38   46 1   
    40   39   40 1   
    41   39   42 1   
    42   39   47 1   
    43   40   41 2   
    44   40   50 1   
    45   42   43 1   
    46   42   48 1   
    47   42   49 1   
    48   43   44 1   
    49   43   45 1   
    50   50   51 1   
    51   50   54 1   
    52   51   52 1   
    53   51   55 1   
    54   51   56 1   
    55   52   53 2   
    56   52   57 1   
    57   57   58 1   
    58   57   65 1   
    59   58   59 1   
    60   58   61 1   
    61   58   66 1   
    62   59   60 2   
    63   59   69 1   
    64   61   62 1   
    65   61   67 1   
    66   61   68 1   
    67   62   63 1   
    68   62   64 1   
    69   69   70 1   
    70   69   73 1   
    71   70   71 1   
    72   70   74 1   
    73   70   75 1   
    74   71   72 2   
    75   71   76 1   
    76   76   77 1   
    77   76   85 1   
    78   77   78 1   
    79   77   80 1   
    80   77   86 1   
    81   78   79 2   
    82   78   93 1   
    83   80   81 1   
    84   80   87 1   
    85   80   88 1   
    86   81   82 1   
    87   81   89 1   
    88   81   90 1   
    89   82   83 1   
    90   82   84 2   
    91   83   91 1   
    92   83   92 1   
    93   93   94 1   
    94   93  100 1   
    95   94   95 1   
    96   94   97 1   
    97   94  101 1   
    98   95   96 2   
    99   95  109 1   
   100   97   98 1   
   101   97   99 1   
   102   97  102 1   
   103   98  103 1   
   104   98  104 1   
   105   98  105 1   
   106   99  106 1   
   107   99  107 1   
   108   99  108 1   
   109  109  110 1   
   110  109  117 1   
   111  110  111 1   
   112  110  113 1   
   113  110  118 1   
   114  111  112 2   
   115  111  123 1   
   116  113  114 1   
   117  113  119 1   
   118  113  120 1   
   119  114  115 1   
   120  114  116 2   
   121  115  121 1   
   122  115  122 1   
   123  123  124 1   
   124  123  135 1   
   125  124  125 1   
   126  124  127 1   
   127  124  136 1   
   128  125  126 2   
   129  125  144 1   
   130  127  128 1   
   131  127  137 1   
   132  127  138 1   
   133  128  129 ar  
   134  128  130 ar  
   135  129  131 ar  
   136  129  139 1   
   137  130  132 ar  
   138  130  140 1   
   139  131  133 ar  
   140  131  141 1   
   141  132  133 ar  
   142  132  142 1   
   143  133  134 1   
   144  134  143 1   
   145  144  145 1   
   146  144  153 1   
   147  145  146 1   
   148  145  148 1   
   149  145  154 1   
   150  146  147 2   
   151  146  159 1   
   152  148  149 1   
   153  148  155 1   
   154  148  156 1   
   155  149  150 1   
   156  149  157 1   
   157  149  158 1   
   158  150  151 1   
   159  150  152 1   
   160  159  160 1   
   161  159  168 1   
   162  160  161 1   
   163  160  163 1   
   164  160  169 1   
   165  161  162 2   
   166  161  174 1   
   167  163  164 1   
   168  163  170 1   
   169  163  171 1   
   170  164  165 1   
   171  164  172 1   
   172  164  173 1   
   173  165  166 1   
   174  165  167 1   
   175  174  175 1   
   176  174  179 1   
   177  175  176 1   
   178  175  177 1   
   179  175  178 1   
   180  181  182 1   
   181  181  183 1   
   182  184  185 1   
   183  184  186 1   
   184  187  188 1   
   185  187  189 1   
   186  190  191 1   
   187  190  192 1   
   188  193  194 1   
   189  193  195 1   
   190  196  197 1   
   191  196  198 1   
   192  199  200 1   
   193  199  201 1   
@<TRIPOS>SUBSTRUCTURE
     1 MOL         1 TEMP              0 ****  ****    0 ROOT
