@<TRIPOS>MOLECULE
MOL
  175   173     1     0     0
SMALL
resp


@<TRIPOS>ATOM
      1 C1         -7.1740    7.5700    1.8000 c3        1 MOL     -0.357475
      2 C2         -7.9800    6.8180    0.7560 c         1 MOL      0.707721
      3 O1         -8.1660    7.2410   -0.3730 o         1 MOL     -0.588203
      4 H1         -6.3280    6.9580    2.1160 hc        1 MOL      0.084081
      5 H2         -6.8070    8.5030    1.3740 hc        1 MOL      0.084081
      6 H3         -7.8060    7.7860    2.6620 hc        1 MOL      0.084081
      7 N1         -8.6170    5.6640    1.1500 n         1 MOL     -0.588762
      8 C3         -9.4210    4.8300    0.2690 c3        1 MOL      0.512101
      9 C4         -8.6870    3.5980   -0.2150 c         1 MOL      0.379717
     10 O2         -9.2910    2.6210   -0.6810 o         1 MOL     -0.441349
     11 C5        -10.6610    4.4600    1.0730 c3        1 MOL     -0.414655
     12 C6        -11.7660    3.9120    0.1660 c         1 MOL      0.775706
     13 O3        -12.5340    3.0510    0.6160 o         1 MOL     -0.746452
     14 O4        -11.8720    4.2700   -1.0160 o         1 MOL     -0.746452
     15 H4         -8.3780    5.2450    2.0280 hn        1 MOL      0.266675
     16 H5         -9.7720    5.4860   -0.5210 h1        1 MOL     -0.013635
     17 H6        -11.0030    5.4150    1.4740 hc        1 MOL      0.051381
     18 H7        -10.3660    3.7570    1.8560 hc        1 MOL      0.051381
     19 N2         -7.3200    3.6110   -0.1490 n         1 MOL     -0.627330
     20 C7         -6.5370    2.7090   -0.8630 c3        1 MOL      0.610180
     21 C8         -5.2620    2.2440   -0.1160 c         1 MOL      0.338904
     22 O5         -4.7070    2.9750    0.6470 o         1 MOL     -0.524510
     23 C9         -6.1290    3.4380   -2.1910 c3        1 MOL     -0.234817
     24 H8         -6.7840    4.3850    0.2200 hn        1 MOL      0.232329
     25 H9         -7.1200    1.8350   -1.1280 h1        1 MOL     -0.124316
     26 H10        -7.0140    3.7520   -2.7340 hc        1 MOL      0.050542
     27 H11        -5.4500    4.2750   -2.0530 hc        1 MOL      0.050542
     28 H12        -5.5330    2.7280   -2.7660 hc        1 MOL      0.050542
     29 N3         -4.7580    1.0470   -0.3840 n         1 MOL     -0.331776
     30 C10        -5.1500    0.0770   -1.3940 c3        1 MOL      0.051430
     31 C11        -5.2810   -1.3260   -0.7470 c         1 MOL      0.380771
     32 O6         -4.5380   -1.7700    0.1210 o         1 MOL     -0.498990
     33 C12        -4.0910   -0.0430   -2.4850 c3        1 MOL     -0.221903
     34 C13        -2.7040   -0.4340   -2.0520 c         1 MOL      0.770351
     35 O7         -2.1380   -1.3460   -2.6680 o         1 MOL     -0.738916
     36 O8         -2.2880    0.0400   -1.0070 o         1 MOL     -0.738916
     37 H13        -3.9350    0.8690    0.1660 hn        1 MOL      0.301485
     38 H14        -6.0720    0.3690   -1.8870 h1        1 MOL      0.098059
     39 H15        -4.0050    0.8960   -3.0310 hc        1 MOL      0.025852
     40 H16        -4.5680   -0.8190   -3.0980 hc        1 MOL      0.025852
     41 N4         -6.2760   -2.0300   -1.2960 n         1 MOL     -0.390998
     42 C14        -6.5940   -3.4270   -0.9700 c3        1 MOL      0.082543
     43 C15        -6.3860   -4.4320   -2.1290 c         1 MOL      0.455914
     44 O9         -7.3270   -4.9400   -2.8060 o         1 MOL     -0.557012
     45 H17        -6.8590   -1.6110   -2.0150 hn        1 MOL      0.304824
     46 H18        -7.6500   -3.5570   -0.7460 h1        1 MOL      0.051929
     47 H19        -6.1460   -3.8220   -0.0520 h1        1 MOL      0.051929
     48 N5         -5.1630   -4.7530   -2.4650 n         1 MOL     -0.470129
     49 C16        -3.9040   -4.5230   -1.6860 c3        1 MOL      0.096983
     50 C17        -3.8240   -5.3020   -0.3740 c         1 MOL      0.556743
     51 O10        -4.0830   -6.5000   -0.3270 o         1 MOL     -0.584656
     52 C18        -2.7190   -4.8240   -2.6510 c3        1 MOL     -0.221455
     53 C19        -1.3150   -4.3470   -2.0690 c         1 MOL      0.568254
     54 N6         -0.2820   -4.7220   -2.7760 n         1 MOL     -0.695228
     55 O11        -1.1880   -3.7950   -1.0130 o         1 MOL     -0.522141
     56 H20        -5.0670   -5.2830   -3.3280 hn        1 MOL      0.307400
     57 H21        -3.8770   -3.4460   -1.5210 h1        1 MOL      0.153457
     58 H22        -2.9050   -4.2940   -3.5890 hc        1 MOL      0.065521
     59 H23        -2.6880   -5.9030   -2.8150 hc        1 MOL      0.065521
     60 H24        -0.4810   -5.3170   -3.5660 hn        1 MOL      0.344405
     61 H25         0.6460   -4.6570   -2.3860 hn        1 MOL      0.344405
     62 N7         -3.3300   -4.7190    0.7150 n         1 MOL     -0.223231
     63 C20        -3.2480   -5.3250    2.0680 c3        1 MOL     -0.295138
     64 C21        -1.8350   -5.2210    2.7320 c         1 MOL      0.577568
     65 O12        -1.7070   -5.4830    3.9070 o         1 MOL     -0.558481
     66 H26        -2.9960   -3.7730    0.5930 hn        1 MOL      0.184770
     67 H27        -3.6390   -6.3470    2.0300 h1        1 MOL      0.137898
     68 H28        -3.8950   -4.7000    2.6920 h1        1 MOL      0.137898
     69 N8         -0.7600   -4.9630    1.8720 n         1 MOL     -0.221331
     70 C22         0.5760   -5.0120    2.2850 c3        1 MOL      0.089448
     71 C23         1.3010   -3.6880    2.0230 c         1 MOL      0.262412
     72 O13         0.7150   -2.7250    1.5580 o         1 MOL     -0.478317
     73 C24         1.3400   -6.2250    1.6710 c3        1 MOL      0.269220
     74 C25         0.8700   -7.5550    2.2770 c3        1 MOL     -0.305991
     75 O14         1.0000   -6.2530    0.2770 oh        1 MOL     -0.601974
     76 H29        -0.8340   -4.8440    0.8680 hn        1 MOL      0.215070
     77 H30         0.6480   -5.2160    3.3580 h1        1 MOL      0.029821
     78 H31         2.3790   -6.0270    1.8830 h1        1 MOL     -0.028177
     79 H32         1.6670   -5.7180   -0.1520 ho        1 MOL      0.424644
     80 H33         1.2260   -8.4290    1.7290 hc        1 MOL      0.078245
     81 H34         1.2110   -7.5760    3.3150 hc        1 MOL      0.078245
     82 H35        -0.2170   -7.5820    2.3290 hc        1 MOL      0.078245
     83 N9          2.5120   -3.6360    2.6390 n         1 MOL     -0.209930
     84 C26         3.4730   -2.5350    2.7160 c3        1 MOL      0.120461
     85 C27         4.5250   -2.6730    1.5500 c         1 MOL      0.202489
     86 O15         5.5330   -3.3490    1.6330 o         1 MOL     -0.536376
     87 C28         4.0590   -2.2930    4.1120 c3        1 MOL      0.054465
     88 C29         4.9890   -1.0280    4.2600 c3        1 MOL      0.199510
     89 C30         2.9090   -2.2290    5.2420 c3        1 MOL     -0.256777
     90 C31         4.3340    0.2960    3.8530 c3        1 MOL     -0.448029
     91 H36         2.7660   -4.4640    3.1510 hn        1 MOL      0.247427
     92 H37         2.8850   -1.6410    2.4800 h1        1 MOL      0.060683
     93 H38         4.5920   -3.1820    4.4420 hc        1 MOL     -0.031516
     94 H39         5.9220   -1.2160    3.7250 hc        1 MOL     -0.021970
     95 H40         5.2750   -1.0400    5.3120 hc        1 MOL     -0.021970
     96 H41         3.2980   -2.0680    6.2410 hc        1 MOL      0.061670
     97 H42         2.3840   -1.3050    5.0100 hc        1 MOL      0.061670
     98 H43         2.2620   -3.1100    5.2190 hc        1 MOL      0.061670
     99 H44         5.0830    1.0480    4.1210 hc        1 MOL      0.104082
    100 H45         4.0360    0.2660    2.8090 hc        1 MOL      0.104082
    101 H46         3.3990    0.3940    4.4140 hc        1 MOL      0.104082
    102 N10         4.2520   -2.1030    0.3960 n         1 MOL     -0.008757
    103 C32         4.9650   -2.4210   -0.9320 c3        1 MOL      0.169021
    104 C33         5.8940   -1.2720   -1.4140 c         1 MOL      0.417972
    105 O16         6.2560   -1.2460   -2.5880 o         1 MOL     -0.531755
    106 C34         3.9690   -2.7980   -2.0190 c3        1 MOL     -0.250059
    107 C35         2.6720   -3.6030   -1.6310 c         1 MOL      0.756912
    108 O17         1.5260   -3.0400   -1.5450 o         1 MOL     -0.710568
    109 O18         2.7300   -4.8330   -1.4340 o         1 MOL     -0.710568
    110 H47         3.4900   -1.4420    0.3170 hn        1 MOL      0.035865
    111 H48         5.6200   -3.2520   -0.6860 h1        1 MOL      0.050300
    112 H49         4.4810   -3.4200   -2.7550 hc        1 MOL      0.060109
    113 H50         3.6300   -1.8920   -2.5210 hc        1 MOL      0.060109
    114 N11         6.0580   -0.2440   -0.6100 n         1 MOL     -0.355711
    115 C36         6.8500    0.9560   -1.0770 c3        1 MOL      0.036117
    116 C37         6.5930    2.2880   -0.2340 c         1 MOL      0.471401
    117 O19         6.7890    2.2200    0.9640 o         1 MOL     -0.508754
    118 C38         8.3760    0.5630   -1.0760 c3        1 MOL     -0.286872
    119 C39         9.2080    1.5860   -1.8730 ca        1 MOL      0.167828
    120 C40         9.7790    2.6950   -1.2320 ca        1 MOL     -0.152094
    121 C41         9.5640    1.2980   -3.1620 ca        1 MOL     -0.152094
    122 C42        10.6550    3.5540   -1.9050 ca        1 MOL     -0.137620
    123 C43        10.4720    2.0650   -3.8330 ca        1 MOL     -0.137620
    124 C44        10.8990    3.2370   -3.2200 ca        1 MOL     -0.090692
    125 H51         5.8630   -0.2940    0.3840 hn        1 MOL      0.284833
    126 H52         6.5630    1.1600   -2.1150 h1        1 MOL      0.087090
    127 H53         8.5280   -0.4660   -1.3980 hc        1 MOL      0.115574
    128 H54         8.6740    0.5800   -0.0270 hc        1 MOL      0.115574
    129 H55         9.4420    2.9310   -0.2340 ha        1 MOL      0.120666
    130 H56         9.1510    0.3870   -3.5500 ha        1 MOL      0.120666
    131 H57        11.0070    4.4910   -1.5010 ha        1 MOL      0.117925
    132 H58        10.8680    1.7810   -4.7920 ha        1 MOL      0.117925
    133 H59        11.4880    3.8880   -3.8480 ha        1 MOL      0.081404
    134 N12         6.3970    3.4490   -0.8460 n         1 MOL     -0.119035
    135 C45         6.3840    4.7700   -0.2000 c3        1 MOL     -0.221555
    136 C46         5.0340    5.1060    0.4070 c         1 MOL      0.603235
    137 O20         4.8340    6.1520    1.0970 o         1 MOL     -0.582301
    138 C47         6.8620    5.7560   -1.2880 c3        1 MOL      0.096529
    139 C48         6.3950    5.2450   -2.5810 c3        1 MOL     -0.031922
    140 C49         6.4210    3.6970   -2.2660 c3        1 MOL     -0.253735
    141 H60         7.1400    4.7950    0.5780 h1        1 MOL      0.119108
    142 H61         6.5000    6.7640   -1.0850 hc        1 MOL      0.016769
    143 H62         7.9470    5.8810   -1.2210 hc        1 MOL      0.016769
    144 H63         5.3650    5.5740   -2.7340 hc        1 MOL      0.045931
    145 H64         7.0250    5.4880   -3.4280 hc        1 MOL      0.045931
    146 H65         5.6480    3.2070   -2.8530 h1        1 MOL      0.116477
    147 H66         7.3360    3.2990   -2.7190 h1        1 MOL      0.116477
    148 N13         4.0000    4.3130    0.3030 n         1 MOL     -0.329672
    149 C50         2.6550    4.5920    0.8830 c3        1 MOL     -0.184393
    150 C51         2.5260    4.9030    2.3360 c         1 MOL      0.548909
    151 O21         1.4300    5.2700    2.7520 o         1 MOL     -0.536888
    152 C52         1.7440    3.4210    0.5110 c3        1 MOL     -0.015488
    153 C53         1.9830    2.1910    1.4440 c3        1 MOL     -0.208908
    154 C54         1.3720    0.9420    0.7820 c         1 MOL      0.774359
    155 O22         2.0660    0.1530    0.1040 o         1 MOL     -0.748718
    156 O23         0.1490    0.7250    0.8430 o         1 MOL     -0.748718
    157 H67         4.1870    3.3650    0.0100 hn        1 MOL      0.223811
    158 H68         2.1360    5.4370    0.4210 h1        1 MOL      0.127409
    159 H69         1.9360    3.2930   -0.5540 hc        1 MOL      0.071531
    160 H70         0.7200    3.7710    0.5980 hc        1 MOL      0.071531
    161 H71         1.6500    2.4460    2.4520 hc        1 MOL      0.054584
    162 H72         3.0610    2.1110    1.4660 hc        1 MOL      0.054584
    163 N14         3.5930    4.8710    3.1160 n         1 MOL     -0.176270
    164 C55         3.6410    5.2790    4.5390 c3        1 MOL     -0.263002
    165 H73         4.6230    5.0480    4.9500 h1        1 MOL      0.109494
    166 H74         3.4570    6.3510    4.6170 h1        1 MOL      0.109494
    167 H75         2.8770    4.7380    5.0990 h1        1 MOL      0.109494
    168 H76         4.4730    4.5550    2.7240 hn        1 MOL      0.211760
    169 Ca1        -0.1470   -1.2730   -0.6680 Ca        1 MOL      1.678264
    170 O24         0.5850    0.1090   -2.8550 oh        1 MOL     -0.796012
    171 H77         0.6440   -0.3960   -3.6640 ho        1 MOL      0.393992
    172 H78         0.2670    0.9670   -3.1290 ho        1 MOL      0.393992
    173 O25        -2.1630   -1.9690    1.3260 oh        1 MOL     -0.796012
    174 H79        -3.0130   -1.6530    1.0180 ho        1 MOL      0.393992
    175 H80        -2.0510   -1.5360    2.1800 ho        1 MOL      0.393992
@<TRIPOS>BOND
     1    1    2 1   
     2    1    4 1   
     3    1    5 1   
     4    1    6 1   
     5    2    3 2   
     6    2    7 1   
     7    7    8 1   
     8    7   15 1   
     9    8    9 1   
    10    8   11 1   
    11    8   16 1   
    12    9   10 2   
    13    9   19 1   
    14   11   12 1   
    15   11   17 1   
    16   11   18 1   
    17   12   13 1   
    18   12   14 1   
    19   19   20 1   
    20   19   24 1   
    21   20   21 1   
    22   20   23 1   
    23   20   25 1   
    24   21   22 2   
    25   21   29 1   
    26   23   26 1   
    27   23   27 1   
    28   23   28 1   
    29   29   30 1   
    30   29   37 1   
    31   30   31 1   
    32   30   33 1   
    33   30   38 1   
    34   31   32 2   
    35   31   41 1   
    36   33   34 1   
    37   33   39 1   
    38   33   40 1   
    39   34   35 1   
    40   34   36 1   
    41   41   42 1   
    42   41   45 1   
    43   42   43 1   
    44   42   46 1   
    45   42   47 1   
    46   43   44 2   
    47   43   48 1   
    48   48   49 1   
    49   48   56 1   
    50   49   50 1   
    51   49   52 1   
    52   49   57 1   
    53   50   51 2   
    54   50   62 1   
    55   52   53 1   
    56   52   58 1   
    57   52   59 1   
    58   53   54 1   
    59   53   55 2   
    60   54   60 1   
    61   54   61 1   
    62   62   63 1   
    63   62   66 1   
    64   63   64 1   
    65   63   67 1   
    66   63   68 1   
    67   64   65 2   
    68   64   69 1   
    69   69   70 1   
    70   69   76 1   
    71   70   71 1   
    72   70   73 1   
    73   70   77 1   
    74   71   72 2   
    75   71   83 1   
    76   73   74 1   
    77   73   75 1   
    78   73   78 1   
    79   74   80 1   
    80   74   81 1   
    81   74   82 1   
    82   75   79 1   
    83   83   84 1   
    84   83   91 1   
    85   84   85 1   
    86   84   87 1   
    87   84   92 1   
    88   85   86 2   
    89   85  102 1   
    90   87   88 1   
    91   87   89 1   
    92   87   93 1   
    93   88   90 1   
    94   88   94 1   
    95   88   95 1   
    96   89   96 1   
    97   89   97 1   
    98   89   98 1   
    99   90   99 1   
   100   90  100 1   
   101   90  101 1   
   102  102  103 1   
   103  102  110 1   
   104  103  104 1   
   105  103  106 1   
   106  103  111 1   
   107  104  105 2   
   108  104  114 1   
   109  106  107 1   
   110  106  112 1   
   111  106  113 1   
   112  107  108 1   
   113  107  109 1   
   114  114  115 1   
   115  114  125 1   
   116  115  116 1   
   117  115  118 1   
   118  115  126 1   
   119  116  117 2   
   120  116  134 1   
   121  118  119 1   
   122  118  127 1   
   123  118  128 1   
   124  119  120 ar  
   125  119  121 ar  
   126  120  122 ar  
   127  120  129 1   
   128  121  123 ar  
   129  121  130 1   
   130  122  124 ar  
   131  122  131 1   
   132  123  124 ar  
   133  123  132 1   
   134  124  133 1   
   135  134  135 1   
   136  134  140 1   
   137  135  136 1   
   138  135  138 1   
   139  135  141 1   
   140  136  137 2   
   141  136  148 1   
   142  138  139 1   
   143  138  142 1   
   144  138  143 1   
   145  139  140 1   
   146  139  144 1   
   147  139  145 1   
   148  140  146 1   
   149  140  147 1   
   150  148  149 1   
   151  148  157 1   
   152  149  150 1   
   153  149  152 1   
   154  149  158 1   
   155  150  151 2   
   156  150  163 1   
   157  152  153 1   
   158  152  159 1   
   159  152  160 1   
   160  153  154 1   
   161  153  161 1   
   162  153  162 1   
   163  154  155 1   
   164  154  156 1   
   165  163  164 1   
   166  163  168 1   
   167  164  165 1   
   168  164  166 1   
   169  164  167 1   
   170  170  171 1   
   171  170  172 1   
   172  173  174 1   
   173  173  175 1   
@<TRIPOS>SUBSTRUCTURE
     1 MOL         1 TEMP              0 ****  ****    0 ROOT
