@<TRIPOS>MOLECULE
MOL
  178   175     1     0     0
SMALL
resp


@<TRIPOS>ATOM
      1 C1          1.8300    7.3280   -1.4920 c3        1 MOL     -0.397749
      2 C2          2.8940    6.5470   -0.7800 c         1 MOL      0.793783
      3 O1          3.0620    6.6250    0.4020 o         1 MOL     -0.604318
      4 H1          0.8590    7.1050   -1.0490 hc        1 MOL      0.091251
      5 H2          2.0360    8.3940   -1.3970 hc        1 MOL      0.091251
      6 H3          1.8190    7.0520   -2.5460 hc        1 MOL      0.091251
      7 N1          3.7370    5.8730   -1.6260 n         1 MOL     -0.737532
      8 C3          4.9380    5.1670   -1.2010 c3        1 MOL      0.401449
      9 C4          4.6380    4.0850   -0.1350 c         1 MOL      0.676076
     10 O2          3.7500    3.1970   -0.2270 o         1 MOL     -0.657812
     11 C5          5.5950    4.6380   -2.4900 c3        1 MOL     -0.305349
     12 C6          6.8120    3.7730   -2.1440 c         1 MOL      0.724597
     13 O3          7.6740    4.2250   -1.3060 o         1 MOL     -0.734225
     14 O4          6.8770    2.5870   -2.5630 o         1 MOL     -0.734225
     15 H4          3.5610    5.9450   -2.6170 hn        1 MOL      0.334032
     16 H5          5.6480    5.7980   -0.6650 h1        1 MOL     -0.054387
     17 H6          6.0150    5.5240   -2.9530 hc        1 MOL      0.040439
     18 H7          4.9060    4.0810   -3.1180 hc        1 MOL      0.040439
     19 N2          5.4570    4.0410    0.8990 n         1 MOL     -0.554402
     20 C7          5.3770    3.1360    2.0800 c3        1 MOL      0.501038
     21 C8          3.9470    2.8300    2.5190 c         1 MOL      0.232555
     22 O5          3.0540    3.6700    2.6190 o         1 MOL     -0.490655
     23 C9          6.2060    3.6670    3.2420 c3        1 MOL     -0.558382
     24 H8          6.2480    4.6750    0.8770 hn        1 MOL      0.277948
     25 H9          5.8860    2.2510    1.7140 h1        1 MOL      0.022750
     26 H10         5.6600    4.4930    3.6880 hc        1 MOL      0.145784
     27 H11         6.4760    2.8380    3.9010 hc        1 MOL      0.145784
     28 H12         7.0970    4.0750    2.7580 hc        1 MOL      0.145784
     29 N3          3.5450    1.5790    2.9850 n         1 MOL     -0.060575
     30 C10         4.5160    0.4870    3.2360 c3        1 MOL     -0.042730
     31 C11         4.9050   -0.3120    1.9530 c         1 MOL      0.464307
     32 O6          4.1460   -0.3670    1.0100 o         1 MOL     -0.473920
     33 C12         3.9130   -0.4460    4.2710 c3        1 MOL     -0.153280
     34 C13         2.5010   -0.7860    3.9610 c         1 MOL      0.749520
     35 O7          1.5400   -0.1540    4.5100 o         1 MOL     -0.728647
     36 O8          2.1110   -1.5220    3.0220 o         1 MOL     -0.728647
     37 H13         2.6210    1.5020    3.3760 hn        1 MOL      0.154930
     38 H14         5.4060    0.9090    3.7160 h1        1 MOL      0.012764
     39 H15         3.8390    0.1330    5.1970 hc        1 MOL      0.042907
     40 H16         4.4880   -1.3580    4.4740 hc        1 MOL      0.042907
     41 N4          6.0130   -0.9710    2.0280 n         1 MOL     -0.449719
     42 C14         6.6600   -1.6560    0.9380 c3        1 MOL     -0.133426
     43 C15         7.2800   -0.7720   -0.1130 c         1 MOL      0.653893
     44 O9          7.6250    0.3890    0.1150 o         1 MOL     -0.515630
     45 H17         6.5200   -1.0370    2.9010 hn        1 MOL      0.319786
     46 H18         5.9510   -2.3720    0.5180 h1        1 MOL      0.110750
     47 H19         7.4940   -2.1870    1.3790 h1        1 MOL      0.110750
     48 N5          7.6640   -1.2970   -1.2710 n         1 MOL     -0.514502
     49 C16         7.5610   -2.6690   -1.7220 c3        1 MOL      0.099145
     50 C17         6.2150   -2.9880   -2.4400 c         1 MOL      0.565167
     51 O10         5.9260   -4.2130   -2.5210 o         1 MOL     -0.571332
     52 C18         8.8800   -3.1570   -2.3650 c3        1 MOL     -0.338510
     53 C19        10.1080   -3.1700   -1.4750 c         1 MOL      0.695355
     54 N6         10.4640   -4.2250   -0.8170 n         1 MOL     -0.775117
     55 O11        10.7720   -2.1410   -1.4470 o         1 MOL     -0.553464
     56 H20         8.0600   -0.6240   -1.9150 hn        1 MOL      0.338144
     57 H21         7.3890   -3.3470   -0.8820 h1        1 MOL      0.054577
     58 H22         9.1850   -2.5860   -3.2400 hc        1 MOL      0.093572
     59 H23         8.6310   -4.1400   -2.7670 hc        1 MOL      0.093572
     60 H24        10.0090   -5.0860   -1.0800 hn        1 MOL      0.358477
     61 H25        11.3240   -4.2530   -0.2830 hn        1 MOL      0.358477
     62 N7          5.3070   -2.0540   -2.6880 n         1 MOL     -0.431071
     63 C20         4.0930   -2.2190   -3.4860 c3        1 MOL     -0.041371
     64 C21         2.8000   -2.7150   -2.8150 c         1 MOL      0.565230
     65 O12         1.8410   -3.0600   -3.4950 o         1 MOL     -0.578190
     66 H26         5.5880   -1.0930   -2.5630 hn        1 MOL      0.318620
     67 H27         4.3810   -2.9560   -4.2370 h1        1 MOL      0.086830
     68 H28         3.9190   -1.4150   -4.1970 h1        1 MOL      0.086830
     69 N8          2.8310   -2.8180   -1.4720 n         1 MOL     -0.392000
     70 C22         1.8990   -3.6410   -0.7270 c3        1 MOL     -0.055621
     71 C23         0.5490   -3.0430   -0.4140 c         1 MOL      0.709401
     72 O13         0.3480   -2.2750    0.4920 o         1 MOL     -0.589064
     73 C24         2.5030   -4.1560    0.6100 c3        1 MOL      0.297060
     74 C25         3.4760   -5.3290    0.1130 c3        1 MOL     -0.335639
     75 O14         3.4000   -3.2130    1.2210 oh        1 MOL     -0.536374
     76 H29         3.6400   -2.5060   -0.9710 hn        1 MOL      0.257995
     77 H30         1.7220   -4.5230   -1.3510 h1        1 MOL      0.058910
     78 H31         1.6870   -4.6060    1.1710 h1        1 MOL      0.073580
     79 H32         2.9370   -2.5070    1.6700 ho        1 MOL      0.353724
     80 H33         4.3080   -5.3630    0.8260 hc        1 MOL      0.074672
     81 H34         2.9640   -6.2900    0.1730 hc        1 MOL      0.074672
     82 H35         3.8000   -5.1340   -0.9100 hc        1 MOL      0.074672
     83 N9         -0.4230   -3.4480   -1.2620 n         1 MOL     -0.675882
     84 C26        -1.7900   -2.9640   -1.1140 c3        1 MOL     -0.008706
     85 C27        -2.4980   -3.4290    0.1180 c         1 MOL      0.601511
     86 O15        -2.5530   -4.6190    0.4140 o         1 MOL     -0.562761
     87 C28        -2.4760   -3.2300   -2.4820 c3        1 MOL      0.024100
     88 C29        -3.7020   -2.2840   -2.5720 c3        1 MOL      0.272026
     89 C30        -1.5190   -3.0310   -3.7220 c3        1 MOL     -0.161586
     90 C31        -4.6950   -2.7160   -3.6710 c3        1 MOL     -0.316905
     91 H36        -0.2120   -3.8420   -2.1680 hn        1 MOL      0.365069
     92 H37        -1.7540   -1.8800   -0.9430 h1        1 MOL      0.161959
     93 H38        -2.8300   -4.2530   -2.4180 hc        1 MOL      0.001546
     94 H39        -3.3500   -1.2880   -2.8360 hc        1 MOL     -0.104781
     95 H40        -4.1370   -2.1800   -1.5740 hc        1 MOL     -0.104781
     96 H41        -0.7260   -3.7660   -3.8050 hc        1 MOL      0.057094
     97 H42        -2.1010   -3.0780   -4.6440 hc        1 MOL      0.057094
     98 H43        -1.1340   -2.0070   -3.7840 hc        1 MOL      0.057094
     99 H44        -5.1390   -3.6830   -3.4460 hc        1 MOL      0.057011
    100 H45        -5.4880   -2.0020   -3.4460 hc        1 MOL      0.057011
    101 H46        -4.2160   -2.5810   -4.6390 hc        1 MOL      0.057011
    102 N10        -3.1520   -2.4730    0.7910 n         1 MOL     -0.269826
    103 C32        -4.1440   -2.7050    1.8990 c3        1 MOL      0.007900
    104 C33        -5.5310   -2.2030    1.6930 c         1 MOL      0.417460
    105 O16        -6.4380   -2.5720    2.4640 o         1 MOL     -0.550824
    106 C34        -3.5050   -2.1640    3.1980 c3        1 MOL      0.008241
    107 C35        -2.1280   -2.7470    3.4890 c         1 MOL      0.622187
    108 O17        -2.0650   -3.9220    3.8720 o         1 MOL     -0.665245
    109 O18        -1.1850   -1.9790    3.3200 o         1 MOL     -0.665245
    110 H47        -3.0510   -1.5360    0.4430 hn        1 MOL      0.140429
    111 H48        -4.2520   -3.7780    2.0340 h1        1 MOL      0.087290
    112 H49        -4.1430   -2.4360    4.0430 hc        1 MOL     -0.024635
    113 H50        -3.3970   -1.0920    3.0540 hc        1 MOL     -0.024635
    114 N11        -5.8210   -1.3550    0.7000 n         1 MOL     -0.520202
    115 C36        -7.1610   -0.6990    0.6290 c3        1 MOL      0.617586
    116 C37        -7.0240    0.7460    0.1440 c         1 MOL      0.105405
    117 O19        -7.6150    1.0480   -0.8680 o         1 MOL     -0.444505
    118 C38        -8.0850   -1.6110   -0.2770 c3        1 MOL     -0.462178
    119 C39        -9.6020   -1.3540   -0.2270 ca        1 MOL      0.259031
    120 C40       -10.2450   -1.3930    1.0460 ca        1 MOL     -0.226688
    121 C41       -10.2970   -1.0980   -1.3750 ca        1 MOL     -0.226688
    122 C42       -11.6860   -1.2440    1.1470 ca        1 MOL     -0.081252
    123 C43       -11.6510   -0.9220   -1.2990 ca        1 MOL     -0.081252
    124 C44       -12.4000   -1.0430   -0.0790 ca        1 MOL     -0.195340
    125 H51        -5.0730   -1.0130    0.1210 hn        1 MOL      0.411888
    126 H52        -7.5550   -0.5600    1.6380 h1        1 MOL     -0.049003
    127 H53        -7.9160   -2.6690   -0.0640 hc        1 MOL      0.127362
    128 H54        -7.7880   -1.3390   -1.2860 hc        1 MOL      0.127362
    129 H55        -9.6760   -1.6720    1.9150 ha        1 MOL      0.134115
    130 H56        -9.6750   -0.9930   -2.2510 ha        1 MOL      0.134115
    131 H57       -12.2130   -1.3560    2.0810 ha        1 MOL      0.099577
    132 H58       -12.1850   -0.7090   -2.2020 ha        1 MOL      0.099577
    133 H59       -13.4720   -1.0180   -0.1660 ha        1 MOL      0.112917
    134 N12        -6.2390    1.6590    0.8500 n         1 MOL     -0.006967
    135 C45        -6.2950    3.1240    0.4900 c3        1 MOL      0.045387
    136 C46        -5.5860    3.5640   -0.8010 c         1 MOL      0.169584
    137 O20        -5.8390    4.6020   -1.3100 o         1 MOL     -0.464092
    138 C47        -5.7450    3.9120    1.6780 c3        1 MOL     -0.111501
    139 C48        -5.6200    2.8730    2.8310 c3        1 MOL     -0.116196
    140 C49        -5.3880    1.5490    2.1100 c3        1 MOL     -0.101097
    141 H60        -7.3570    3.3410    0.3840 h1        1 MOL      0.088437
    142 H61        -4.8230    4.4190    1.3730 hc        1 MOL      0.065757
    143 H62        -6.5510    4.5950    1.9540 hc        1 MOL      0.065757
    144 H63        -4.7720    3.2160    3.4230 hc        1 MOL      0.045668
    145 H64        -6.5290    2.8490    3.4220 hc        1 MOL      0.045668
    146 H65        -4.3180    1.4170    1.9220 h1        1 MOL      0.090542
    147 H66        -5.7100    0.6960    2.7090 h1        1 MOL      0.090542
    148 N13        -4.7180    2.6710   -1.3110 n         1 MOL      0.098457
    149 C50        -4.0280    2.8130   -2.5460 c3        1 MOL     -0.382409
    150 C51        -5.0480    2.7490   -3.6880 c         1 MOL      0.589529
    151 O21        -4.9270    3.4410   -4.6630 o         1 MOL     -0.554825
    152 C52        -2.8620    1.7280   -2.6230 c3        1 MOL      0.117566
    153 C53        -1.9650    1.4670   -1.4610 c3        1 MOL      0.030832
    154 C54        -2.5370    0.6330   -0.2380 c         1 MOL      0.499565
    155 O22        -1.8450    0.4070    0.7670 o         1 MOL     -0.682336
    156 O23        -3.6730    0.1360   -0.3700 o         1 MOL     -0.682336
    157 H67        -4.5770    1.7580   -0.8970 hn        1 MOL      0.127280
    158 H68        -3.6120    3.8180   -2.4440 h1        1 MOL      0.145718
    159 H69        -2.2220    2.1100   -3.4240 hc        1 MOL      0.010511
    160 H70        -3.2600    0.7650   -2.9370 hc        1 MOL      0.010511
    161 H71        -1.5780    2.3750   -0.9940 hc        1 MOL     -0.011925
    162 H72        -1.0960    0.8780   -1.7480 hc        1 MOL     -0.011925
    163 N14        -6.1050    1.9120   -3.5030 n         1 MOL     -0.243256
    164 C55        -7.1510    1.6830   -4.4870 c3        1 MOL     -0.137490
    165 H73        -8.1250    1.7320   -4.0000 h1        1 MOL      0.067037
    166 H74        -7.0950    2.4460   -5.2630 h1        1 MOL      0.067037
    167 H75        -7.0190    0.6990   -4.9360 h1        1 MOL      0.067037
    168 H76        -6.1290    1.3590   -2.6600 hn        1 MOL      0.225209
    169 Ca1         0.0220   -0.0560    2.2900 Ca        1 MOL      1.651895
    170 O24         1.8860    0.6230    0.5940 oh        1 MOL     -0.827852
    171 H77         2.7850    0.3030    0.6350 ho        1 MOL      0.406132
    172 H78         1.9690    1.5390    0.3360 ho        1 MOL      0.406132
    173 O25         0.6570    2.5060    2.4280 oh        1 MOL     -0.827852
    174 H79        -0.0970    3.0890    2.5630 ho        1 MOL      0.406132
    175 H80         1.3890    3.0870    2.2550 ho        1 MOL      0.406132
    176 O26        -1.5940    1.4660    3.7460 oh        1 MOL     -0.827852
    177 H81        -2.3990    1.2460    4.2240 ho        1 MOL      0.406132
    178 H82        -1.7070    2.3940    3.5240 ho        1 MOL      0.406132
@<TRIPOS>BOND
     1    1    2 1   
     2    1    4 1   
     3    1    5 1   
     4    1    6 1   
     5    2    3 2   
     6    2    7 1   
     7    7    8 1   
     8    7   15 1   
     9    8    9 1   
    10    8   11 1   
    11    8   16 1   
    12    9   10 2   
    13    9   19 1   
    14   11   12 1   
    15   11   17 1   
    16   11   18 1   
    17   12   13 1   
    18   12   14 1   
    19   19   20 1   
    20   19   24 1   
    21   20   21 1   
    22   20   23 1   
    23   20   25 1   
    24   21   22 2   
    25   21   29 1   
    26   23   26 1   
    27   23   27 1   
    28   23   28 1   
    29   29   30 1   
    30   29   37 1   
    31   30   31 1   
    32   30   33 1   
    33   30   38 1   
    34   31   32 2   
    35   31   41 1   
    36   33   34 1   
    37   33   39 1   
    38   33   40 1   
    39   34   35 1   
    40   34   36 1   
    41   41   42 1   
    42   41   45 1   
    43   42   43 1   
    44   42   46 1   
    45   42   47 1   
    46   43   44 2   
    47   43   48 1   
    48   48   49 1   
    49   48   56 1   
    50   49   50 1   
    51   49   52 1   
    52   49   57 1   
    53   50   51 2   
    54   50   62 1   
    55   52   53 1   
    56   52   58 1   
    57   52   59 1   
    58   53   54 1   
    59   53   55 2   
    60   54   60 1   
    61   54   61 1   
    62   62   63 1   
    63   62   66 1   
    64   63   64 1   
    65   63   67 1   
    66   63   68 1   
    67   64   65 2   
    68   64   69 1   
    69   69   70 1   
    70   69   76 1   
    71   70   71 1   
    72   70   73 1   
    73   70   77 1   
    74   71   72 2   
    75   71   83 1   
    76   73   74 1   
    77   73   75 1   
    78   73   78 1   
    79   74   80 1   
    80   74   81 1   
    81   74   82 1   
    82   75   79 1   
    83   83   84 1   
    84   83   91 1   
    85   84   85 1   
    86   84   87 1   
    87   84   92 1   
    88   85   86 2   
    89   85  102 1   
    90   87   88 1   
    91   87   89 1   
    92   87   93 1   
    93   88   90 1   
    94   88   94 1   
    95   88   95 1   
    96   89   96 1   
    97   89   97 1   
    98   89   98 1   
    99   90   99 1   
   100   90  100 1   
   101   90  101 1   
   102  102  103 1   
   103  102  110 1   
   104  103  104 1   
   105  103  106 1   
   106  103  111 1   
   107  104  105 2   
   108  104  114 1   
   109  106  107 1   
   110  106  112 1   
   111  106  113 1   
   112  107  108 1   
   113  107  109 1   
   114  114  115 1   
   115  114  125 1   
   116  115  116 1   
   117  115  118 1   
   118  115  126 1   
   119  116  117 2   
   120  116  134 1   
   121  118  119 1   
   122  118  127 1   
   123  118  128 1   
   124  119  120 ar  
   125  119  121 ar  
   126  120  122 ar  
   127  120  129 1   
   128  121  123 ar  
   129  121  130 1   
   130  122  124 ar  
   131  122  131 1   
   132  123  124 ar  
   133  123  132 1   
   134  124  133 1   
   135  134  135 1   
   136  134  140 1   
   137  135  136 1   
   138  135  138 1   
   139  135  141 1   
   140  136  137 2   
   141  136  148 1   
   142  138  139 1   
   143  138  142 1   
   144  138  143 1   
   145  139  140 1   
   146  139  144 1   
   147  139  145 1   
   148  140  146 1   
   149  140  147 1   
   150  148  149 1   
   151  148  157 1   
   152  149  150 1   
   153  149  152 1   
   154  149  158 1   
   155  150  151 2   
   156  150  163 1   
   157  152  153 1   
   158  152  159 1   
   159  152  160 1   
   160  153  154 1   
   161  153  161 1   
   162  153  162 1   
   163  154  155 1   
   164  154  156 1   
   165  163  164 1   
   166  163  168 1   
   167  164  165 1   
   168  164  166 1   
   169  164  167 1   
   170  170  171 1   
   171  170  172 1   
   172  173  174 1   
   173  173  175 1   
   174  176  177 1   
   175  176  178 1   
@<TRIPOS>SUBSTRUCTURE
     1 MOL         1 TEMP              0 ****  ****    0 ROOT
