@<TRIPOS>MOLECULE
MOL
  192   187     1     0     0
SMALL
resp


@<TRIPOS>ATOM
      1 C1          9.0560    0.9190    2.4570 c3        1 MOL     -0.560660
      2 C2          8.3250    0.8830    1.1090 c         1 MOL      0.693886
      3 O1          7.7350    1.8370    0.6470 o         1 MOL     -0.583151
      4 H1          8.3380    1.1100    3.2540 hc        1 MOL      0.139445
      5 H2          9.5450   -0.0390    2.6310 hc        1 MOL      0.139445
      6 H3          9.8030    1.7130    2.4440 hc        1 MOL      0.139445
      7 N1          8.5140   -0.2400    0.4330 n         1 MOL     -0.415543
      8 C3          8.0170   -0.4690   -0.9850 c3        1 MOL     -0.048033
      9 C4          7.1440   -1.7480   -1.1210 c         1 MOL      0.363548
     10 O2          7.0710   -2.2790   -2.2720 o         1 MOL     -0.432594
     11 C5          9.1890   -0.3820   -1.9880 c3        1 MOL     -0.237428
     12 C6         10.4140   -1.2580   -1.6480 c         1 MOL      0.711178
     13 O3         11.3580   -0.7690   -0.9870 o         1 MOL     -0.675401
     14 O4         10.4770   -2.4930   -2.0110 o         1 MOL     -0.675401
     15 H4          9.1050   -0.9580    0.8280 hn        1 MOL      0.263355
     16 H5          7.3110    0.3070   -1.2760 h1        1 MOL      0.157843
     17 H6          9.4920    0.6590   -1.9240 hc        1 MOL      0.083878
     18 H7          8.8800   -0.5820   -3.0160 hc        1 MOL      0.083878
     19 N2          6.6020   -2.2220   -0.0000 n         1 MOL     -0.104342
     20 C7          6.0350   -3.5860    0.0750 c3        1 MOL     -0.024986
     21 C8          4.5570   -3.8220   -0.4550 c         1 MOL      0.481565
     22 O5          4.4140   -4.8430   -1.1660 o         1 MOL     -0.525868
     23 C9          6.3250   -4.1960    1.5090 c3        1 MOL      0.013662
     24 C10         7.7950   -4.3690    1.8800 c3        1 MOL      0.043611
     25 C11         7.9920   -5.0260    3.2140 c3        1 MOL      0.147576
     26 C12         9.4310   -4.6660    3.6190 c3        1 MOL      0.150667
     27 N3          9.7130   -5.2960    4.8790 n4        1 MOL     -0.427413
     28 H8          6.6520   -1.6520    0.8250 hn        1 MOL      0.106283
     29 H9          6.6390   -4.2120   -0.5850 h1        1 MOL      0.092346
     30 H10         5.9160   -5.1920    1.6600 hc        1 MOL     -0.000604
     31 H11         5.8550   -3.6040    2.2960 hc        1 MOL     -0.000604
     32 H12         8.1960   -3.3510    1.8520 hc        1 MOL     -0.002760
     33 H13         8.3320   -5.0090    1.1740 hc        1 MOL     -0.002760
     34 H14         7.6560   -6.0670    3.1780 hc        1 MOL     -0.030866
     35 H15         7.3540   -4.4770    3.9110 hc        1 MOL     -0.030866
     36 H16         9.5220   -3.5840    3.8040 hx        1 MOL      0.035314
     37 H17        10.1800   -4.8180    2.8520 hx        1 MOL      0.035314
     38 H18         9.5290   -6.2870    4.9450 hn        1 MOL      0.332788
     39 H19        10.7200   -5.1660    4.9240 hn        1 MOL      0.332788
     40 H20         9.3690   -4.8510    5.7070 hn        1 MOL      0.332788
     41 N4          3.5710   -2.9660   -0.2210 n         1 MOL     -0.444992
     42 C13         3.5920   -1.7460    0.5830 c3        1 MOL      0.018939
     43 C14         3.8240   -0.4980   -0.3110 c         1 MOL      0.193032
     44 O6          3.7690   -0.5290   -1.5440 o         1 MOL     -0.378280
     45 C15         2.4090   -1.7030    1.5160 c3        1 MOL     -0.180027
     46 C16         1.0580   -1.7450    0.7280 c         1 MOL      0.687854
     47 O7          0.9120   -0.9630   -0.2820 o         1 MOL     -0.678508
     48 O8          0.1010   -2.4000    1.1560 o         1 MOL     -0.678508
     49 H21         2.7610   -2.9550   -0.8260 hn        1 MOL      0.359032
     50 H22         4.4840   -1.9020    1.1890 h1        1 MOL      0.084881
     51 H23         2.4990   -0.7780    2.0990 hc        1 MOL      0.052836
     52 H24         2.4350   -2.5090    2.2510 hc        1 MOL      0.052836
     53 N5          4.1370    0.5830    0.3160 n         1 MOL     -0.253279
     54 C17         4.3660    1.8430   -0.4060 c3        1 MOL     -0.159390
     55 C18         3.1080    2.5340   -0.8160 c         1 MOL      0.723415
     56 O9          2.0160    1.9650   -0.7820 o         1 MOL     -0.498077
     57 H25         4.4060    0.5280    1.2880 hn        1 MOL      0.256451
     58 H26         4.9700    1.7250   -1.2920 h1        1 MOL      0.091585
     59 H27         4.8340    2.4910    0.3350 h1        1 MOL      0.091585
     60 N6          3.3070    3.6920   -1.4500 n         1 MOL     -0.584527
     61 C19         2.2290    4.5100   -1.9990 c3        1 MOL      0.249183
     62 C20         2.5150    6.0350   -1.8950 c         1 MOL      0.552740
     63 O10         3.5860    6.4600   -1.6340 o         1 MOL     -0.548791
     64 C21         2.0390    4.0970   -3.5220 c3        1 MOL     -0.185744
     65 C22         1.1460    2.8740   -3.6610 c         1 MOL      0.698774
     66 O11         1.4840    1.9070   -4.4260 o         1 MOL     -0.694789
     67 O12         0.0840    2.8100   -3.0130 o         1 MOL     -0.694789
     68 H28         4.2710    4.0090   -1.5460 hn        1 MOL      0.313248
     69 H29         1.2390    4.3420   -1.5830 h1        1 MOL      0.046851
     70 H30         3.0130    4.0050   -4.0000 hc        1 MOL      0.044254
     71 H31         1.4860    4.8710   -4.0600 hc        1 MOL      0.044254
     72 N7          1.5700    6.9460   -2.1200 n         1 MOL     -0.533549
     73 C23         0.1530    6.7400   -2.4680 c3        1 MOL      0.050494
     74 C24        -0.6520    6.2910   -1.2210 c         1 MOL      0.633900
     75 O13        -0.2580    6.6090   -0.0810 o         1 MOL     -0.532452
     76 H32         1.8680    7.9030   -2.2380 hn        1 MOL      0.336848
     77 H33         0.0650    5.9600   -3.2250 h1        1 MOL      0.033743
     78 H34        -0.3400    7.6410   -2.8480 h1        1 MOL      0.033743
     79 N8         -1.7900    5.6610   -1.4170 n         1 MOL     -0.638573
     80 C25        -2.4740    5.0890   -0.1790 c3        1 MOL      0.197486
     81 C26        -1.6460    4.0060    0.3060 c         1 MOL      0.321007
     82 O14        -1.2900    3.1400   -0.4600 o         1 MOL     -0.519130
     83 C27        -3.8350    4.5050   -0.5980 c3        1 MOL      0.335323
     84 C28        -4.8420    5.6180   -1.0420 c3        1 MOL     -0.362232
     85 O15        -4.4690    3.7800    0.3390 oh        1 MOL     -0.695242
     86 H35        -2.1430    5.3070   -2.2870 hn        1 MOL      0.324567
     87 H36        -2.5560    5.8760    0.5750 h1        1 MOL      0.065444
     88 H37        -3.6240    3.8130   -1.4060 h1        1 MOL      0.049949
     89 H38        -5.4240    3.8770    0.2650 ho        1 MOL      0.446205
     90 H39        -5.7870    5.1750   -1.3410 hc        1 MOL      0.092429
     91 H40        -4.9160    6.3510   -0.2360 hc        1 MOL      0.092429
     92 H41        -4.3760    6.1960   -1.8360 hc        1 MOL      0.092429
     93 N9         -1.4110    4.0440    1.6110 n         1 MOL     -0.437967
     94 C29        -0.7170    2.9880    2.3760 c3        1 MOL     -0.023539
     95 C30        -1.2110    1.5410    2.1110 c         1 MOL      0.815934
     96 O16        -0.7000    0.8940    1.2300 o         1 MOL     -0.596357
     97 C31         0.8580    3.1100    2.2090 c3        1 MOL      0.181938
     98 C32         1.2440    4.5680    2.3010 c3        1 MOL      0.201788
     99 C33         1.5130    2.3250    3.3310 c3        1 MOL     -0.279102
    100 C34         2.7410    4.8890    2.1910 c3        1 MOL     -0.429037
    101 H42        -1.7660    4.8310    2.1490 hn        1 MOL      0.292537
    102 H43        -1.0220    3.1660    3.4100 h1        1 MOL      0.026499
    103 H44         1.2310    2.7140    1.2590 hc        1 MOL     -0.038941
    104 H45         0.9260    5.0150    3.2380 hc        1 MOL     -0.032515
    105 H46         0.7510    5.2030    1.5710 hc        1 MOL     -0.032515
    106 H47         2.5940    2.3200    3.2240 hc        1 MOL      0.057079
    107 H48         1.1930    2.6410    4.3230 hc        1 MOL      0.057079
    108 H49         1.1740    1.2980    3.1900 hc        1 MOL      0.057079
    109 H50         2.8720    5.9290    1.8620 hc        1 MOL      0.101418
    110 H51         3.0480    4.7330    3.2210 hc        1 MOL      0.101418
    111 H52         3.1240    4.2090    1.4340 hc        1 MOL      0.101418
    112 N10        -2.1370    1.0340    2.9160 n         1 MOL     -0.699138
    113 C35        -2.5010   -0.3870    2.8390 c3        1 MOL     -0.053572
    114 C36        -4.0020   -0.7140    2.9540 c         1 MOL      0.505849
    115 O17        -4.4100   -1.8560    3.0420 o         1 MOL     -0.574551
    116 C37        -1.7250   -1.2370    3.8540 c3        1 MOL      0.601421
    117 C38        -1.8380   -0.7260    5.2670 c3        1 MOL     -0.284989
    118 O18        -0.3830   -1.2130    3.4740 oh        1 MOL     -0.688227
    119 H53        -2.4540    1.6310    3.6650 hn        1 MOL      0.341258
    120 H54        -2.1800   -0.7310    1.8490 h1        1 MOL      0.048090
    121 H55        -1.9730   -2.3020    3.8120 h1        1 MOL     -0.037157
    122 H56        -0.3340   -1.6800    2.6330 ho        1 MOL      0.411363
    123 H57        -1.4590   -1.4760    5.9600 hc        1 MOL      0.055241
    124 H58        -1.3170    0.2260    5.3280 hc        1 MOL      0.055241
    125 H59        -2.8810   -0.5860    5.5620 hc        1 MOL      0.055241
    126 N11        -4.8800    0.2930    2.9510 n         1 MOL     -0.358921
    127 C39        -6.3110    0.1120    3.0830 c3        1 MOL      0.111026
    128 C40        -6.9030   -0.4190    1.7640 c         1 MOL      0.422899
    129 O19        -7.5290    0.3200    0.8860 o         1 MOL     -0.528298
    130 C41        -6.9710    1.4630    3.5790 c3        1 MOL      0.314909
    131 C42        -8.4480    1.2130    3.9650 c3        1 MOL     -0.339244
    132 O20        -6.3000    2.0120    4.6840 oh        1 MOL     -0.658042
    133 H60        -4.5460    1.2440    2.9210 hn        1 MOL      0.289918
    134 H61        -6.4430   -0.6810    3.8160 h1        1 MOL      0.057984
    135 H62        -6.9780    2.1420    2.7250 h1        1 MOL      0.016417
    136 H63        -6.9700    2.2440    5.3240 ho        1 MOL      0.423691
    137 H64        -8.5600    0.3440    4.6130 hc        1 MOL      0.089463
    138 H65        -8.8990    1.9860    4.5860 hc        1 MOL      0.089463
    139 H66        -9.0430    1.0440    3.0690 hc        1 MOL      0.089463
    140 N12        -6.7810   -1.7540    1.5610 n         1 MOL     -0.684998
    141 C43        -6.7260   -2.4910    0.3120 c3        1 MOL      0.195410
    142 C44        -5.3890   -2.1530   -0.4510 c         1 MOL      0.511102
    143 O21        -4.8920   -1.0850   -0.1340 o         1 MOL     -0.441775
    144 C45        -8.0140   -2.2880   -0.5690 c3        1 MOL     -0.221477
    145 C46        -9.2760   -2.7230    0.2750 c3        1 MOL     -0.347938
    146 C47       -10.5620   -2.7750   -0.5020 c3        1 MOL      0.128896
    147 C48       -11.8710   -3.1230    0.3180 c3        1 MOL     -0.088854
    148 N13       -12.9960   -3.0280   -0.6090 n4        1 MOL     -0.100167
    149 H67        -6.1840   -2.2480    2.2140 hn        1 MOL      0.391467
    150 H68        -6.5960   -3.5580    0.4910 h1        1 MOL      0.035466
    151 H69        -7.7610   -2.8000   -1.4840 hc        1 MOL      0.128783
    152 H70        -8.1050   -1.3010   -1.0190 hc        1 MOL      0.128783
    153 H71        -9.3240   -1.9290    1.0130 hc        1 MOL      0.149267
    154 H72        -9.1210   -3.7480    0.6370 hc        1 MOL      0.149267
    155 H73       -10.4830   -3.4480   -1.3580 hc        1 MOL      0.018470
    156 H74       -10.6630   -1.8860   -1.1170 hc        1 MOL      0.018470
    157 H75       -11.8730   -2.3590    1.1000 hx        1 MOL      0.096541
    158 H76       -11.8730   -4.0650    0.8550 hx        1 MOL      0.096541
    159 H77       -13.8620   -2.9280   -0.0910 hn        1 MOL      0.179993
    160 H78       -12.8990   -2.1980   -1.1870 hn        1 MOL      0.179993
    161 H79       -13.0990   -3.7810   -1.2640 hn        1 MOL      0.179993
    162 N14        -4.9480   -3.0750   -1.2690 n         1 MOL     -0.646425
    163 C49        -3.8620   -2.9660   -2.3090 c3        1 MOL      0.495534
    164 C50        -2.5010   -2.5560   -1.6340 c         1 MOL      0.262646
    165 O22        -1.8600   -1.7280   -2.2220 o         1 MOL     -0.535081
    166 C51        -3.7100   -4.2110   -3.0720 c3        1 MOL     -0.178416
    167 C52        -4.7650   -4.5580   -4.1650 c3        1 MOL     -0.189357
    168 C53        -4.3650   -5.8580   -4.9730 c         1 MOL      0.776643
    169 O23        -3.8410   -5.7680   -6.0890 o         1 MOL     -0.668105
    170 O24        -4.7880   -6.9310   -4.6060 o         1 MOL     -0.668105
    171 H80        -5.4880   -3.9210   -1.2220 hn        1 MOL      0.339294
    172 H81        -4.0660   -2.1600   -3.0250 h1        1 MOL      0.014201
    173 H82        -3.6750   -5.0720   -2.4040 hc        1 MOL      0.052619
    174 H83        -2.7060   -4.2130   -3.4920 hc        1 MOL      0.052619
    175 H84        -4.8460   -3.6930   -4.8340 hc        1 MOL     -0.011154
    176 H85        -5.7270   -4.6970   -3.6590 hc        1 MOL     -0.011154
    177 N15        -2.0590   -3.1750   -0.5360 n         1 MOL     -0.171582
    178 C54        -2.4630   -4.4940    0.0650 c3        1 MOL      0.009688
    179 H86        -1.6550   -5.2140   -0.0640 h1        1 MOL      0.027354
    180 H87        -2.6660   -4.3620    1.1280 h1        1 MOL      0.027354
    181 H88        -3.3600   -4.8620   -0.4350 h1        1 MOL      0.027354
    182 H89        -1.2260   -2.7670   -0.1400 hn        1 MOL      0.269547
    183 Ca1        -0.5300    0.7240   -1.5630 Ca        1 MOL      1.785315
    184 O25         0.6940   -0.4110   -3.5370 oh        1 MOL     -0.870303
    185 H90         1.0030    0.3360   -4.0350 ho        1 MOL      0.409614
    186 H91         0.5770   -1.1080   -4.1870 ho        1 MOL      0.409614
    187 O26        -3.1630    0.8400   -0.6020 oh        1 MOL     -0.870303
    188 H92        -3.3530    1.6000   -0.0550 ho        1 MOL      0.409614
    189 H93        -3.8840    0.2340   -0.4420 ho        1 MOL      0.409614
    190 O27        -2.2300    0.7060   -3.6070 oh        1 MOL     -0.870303
    191 H94        -2.2470    1.3210   -4.3400 ho        1 MOL      0.409614
    192 H95        -2.4470   -0.1340   -4.0000 ho        1 MOL      0.409614
@<TRIPOS>BOND
     1    1    2 1   
     2    1    4 1   
     3    1    5 1   
     4    1    6 1   
     5    2    3 2   
     6    2    7 1   
     7    7    8 1   
     8    7   15 1   
     9    8    9 1   
    10    8   11 1   
    11    8   16 1   
    12    9   10 2   
    13    9   19 1   
    14   11   12 1   
    15   11   17 1   
    16   11   18 1   
    17   12   13 1   
    18   12   14 1   
    19   19   20 1   
    20   19   28 1   
    21   20   21 1   
    22   20   23 1   
    23   20   29 1   
    24   21   22 2   
    25   21   41 1   
    26   23   24 1   
    27   23   30 1   
    28   23   31 1   
    29   24   25 1   
    30   24   32 1   
    31   24   33 1   
    32   25   26 1   
    33   25   34 1   
    34   25   35 1   
    35   26   27 1   
    36   26   36 1   
    37   26   37 1   
    38   27   38 1   
    39   27   39 1   
    40   27   40 1   
    41   41   42 1   
    42   41   49 1   
    43   42   43 1   
    44   42   45 1   
    45   42   50 1   
    46   43   44 2   
    47   43   53 1   
    48   45   46 1   
    49   45   51 1   
    50   45   52 1   
    51   46   47 1   
    52   46   48 1   
    53   53   54 1   
    54   53   57 1   
    55   54   55 1   
    56   54   58 1   
    57   54   59 1   
    58   55   56 2   
    59   55   60 1   
    60   60   61 1   
    61   60   68 1   
    62   61   62 1   
    63   61   64 1   
    64   61   69 1   
    65   62   63 2   
    66   62   72 1   
    67   64   65 1   
    68   64   70 1   
    69   64   71 1   
    70   65   66 1   
    71   65   67 1   
    72   72   73 1   
    73   72   76 1   
    74   73   74 1   
    75   73   77 1   
    76   73   78 1   
    77   74   75 2   
    78   74   79 1   
    79   79   80 1   
    80   79   86 1   
    81   80   81 1   
    82   80   83 1   
    83   80   87 1   
    84   81   82 2   
    85   81   93 1   
    86   83   84 1   
    87   83   85 1   
    88   83   88 1   
    89   84   90 1   
    90   84   91 1   
    91   84   92 1   
    92   85   89 1   
    93   93   94 1   
    94   93  101 1   
    95   94   95 1   
    96   94   97 1   
    97   94  102 1   
    98   95   96 2   
    99   95  112 1   
   100   97   98 1   
   101   97   99 1   
   102   97  103 1   
   103   98  100 1   
   104   98  104 1   
   105   98  105 1   
   106   99  106 1   
   107   99  107 1   
   108   99  108 1   
   109  100  109 1   
   110  100  110 1   
   111  100  111 1   
   112  112  113 1   
   113  112  119 1   
   114  113  114 1   
   115  113  116 1   
   116  113  120 1   
   117  114  115 2   
   118  114  126 1   
   119  116  117 1   
   120  116  118 1   
   121  116  121 1   
   122  117  123 1   
   123  117  124 1   
   124  117  125 1   
   125  118  122 1   
   126  126  127 1   
   127  126  133 1   
   128  127  128 1   
   129  127  130 1   
   130  127  134 1   
   131  128  129 2   
   132  128  140 1   
   133  130  131 1   
   134  130  132 1   
   135  130  135 1   
   136  131  137 1   
   137  131  138 1   
   138  131  139 1   
   139  132  136 1   
   140  140  141 1   
   141  140  149 1   
   142  141  142 1   
   143  141  144 1   
   144  141  150 1   
   145  142  143 2   
   146  142  162 1   
   147  144  145 1   
   148  144  151 1   
   149  144  152 1   
   150  145  146 1   
   151  145  153 1   
   152  145  154 1   
   153  146  147 1   
   154  146  155 1   
   155  146  156 1   
   156  147  148 1   
   157  147  157 1   
   158  147  158 1   
   159  148  159 1   
   160  148  160 1   
   161  148  161 1   
   162  162  163 1   
   163  162  171 1   
   164  163  164 1   
   165  163  166 1   
   166  163  172 1   
   167  164  165 2   
   168  164  177 1   
   169  166  167 1   
   170  166  173 1   
   171  166  174 1   
   172  167  168 1   
   173  167  175 1   
   174  167  176 1   
   175  168  169 1   
   176  168  170 1   
   177  177  178 1   
   178  177  182 1   
   179  178  179 1   
   180  178  180 1   
   181  178  181 1   
   182  184  185 1   
   183  184  186 1   
   184  187  188 1   
   185  187  189 1   
   186  190  191 1   
   187  190  192 1   
@<TRIPOS>SUBSTRUCTURE
     1 MOL         1 TEMP              0 ****  ****    0 ROOT
