@<TRIPOS>MOLECULE
MOL
  188   182     1     0     0
SMALL
resp


@<TRIPOS>ATOM
      1 C1         -6.2930   -1.3740    3.1920 c3        1 MOL     -0.498028
      2 C2         -6.6700   -1.6790    1.7060 c         1 MOL      0.695729
      3 O1         -5.9140   -1.2240    0.8180 o         1 MOL     -0.519924
      4 H1         -5.2840   -1.7330    3.3910 hc        1 MOL      0.123093
      5 H2         -6.3360   -0.2990    3.3650 hc        1 MOL      0.123093
      6 H3         -6.9960   -1.8780    3.8560 hc        1 MOL      0.123093
      7 N1         -7.7810   -2.3350    1.4610 n         1 MOL     -0.485471
      8 C3         -8.3870   -2.2870    0.0940 c3        1 MOL     -0.081923
      9 C4         -8.4690   -0.8110   -0.4770 c         1 MOL      0.553131
     10 O2         -8.3780   -0.6470   -1.7200 o         1 MOL     -0.501871
     11 C5         -7.7410   -3.2930   -0.9390 c3        1 MOL     -0.128705
     12 C6         -7.6430   -4.6960   -0.4100 c         1 MOL      0.726375
     13 O3         -8.5000   -5.0590    0.4420 o         1 MOL     -0.684012
     14 O4         -6.7920   -5.4590   -0.9040 o         1 MOL     -0.684012
     15 H4         -8.2680   -2.9130    2.1230 hn        1 MOL      0.320357
     16 H5         -9.4040   -2.6150    0.3220 h1        1 MOL      0.079262
     17 H6         -6.7050   -3.0310   -1.1430 hc        1 MOL      0.058888
     18 H7         -8.3440   -3.2980   -1.8480 hc        1 MOL      0.058888
     19 N2         -8.5760    0.2550    0.3470 n         1 MOL     -0.534753
     20 C7         -8.6170    1.6690   -0.1170 c3        1 MOL      0.056948
     21 C8         -7.2310    2.2640   -0.3530 c         1 MOL      0.458529
     22 O5         -7.2060    3.3990   -0.8740 o         1 MOL     -0.552530
     23 C9         -9.3000    2.5640    0.9220 c3        1 MOL     -0.006183
     24 C10       -10.7780    2.2970    1.1120 c3        1 MOL      0.176178
     25 C11       -11.3250    3.3380    2.1190 c3        1 MOL     -0.062568
     26 C12       -12.8580    3.2050    2.0040 c3        1 MOL      0.021968
     27 N3        -13.4920    3.9490    3.0950 n4        1 MOL     -0.159300
     28 H8         -8.7400    0.1030    1.3360 hn        1 MOL      0.288800
     29 H9         -9.2070    1.7970   -1.0160 h1        1 MOL      0.127121
     30 H10        -9.0890    3.5760    0.5740 hc        1 MOL      0.002153
     31 H11        -8.8510    2.4280    1.9000 hc        1 MOL      0.002153
     32 H12       -10.7690    1.2780    1.4940 hc        1 MOL     -0.042835
     33 H13       -11.3540    2.2580    0.1920 hc        1 MOL     -0.042835
     34 H14       -10.9700    4.3310    1.8610 hc        1 MOL      0.028852
     35 H15       -11.0070    3.0260    3.1140 hc        1 MOL      0.028852
     36 H16       -13.1780    2.1740    2.1510 hx        1 MOL      0.078485
     37 H17       -13.1440    3.5960    1.0300 hx        1 MOL      0.078485
     38 H18       -13.3360    4.9390    3.0110 hn        1 MOL      0.204583
     39 H19       -14.4960    3.8720    3.0760 hn        1 MOL      0.204583
     40 H20       -13.1030    3.6070    3.9700 hn        1 MOL      0.204583
     41 N4         -6.1280    1.5700   -0.0980 n         1 MOL     -0.244900
     42 C13        -4.7410    2.0240   -0.3190 c3        1 MOL     -0.057343
     43 C14        -4.4280    2.2230   -1.8830 c         1 MOL      0.578842
     44 O6         -5.1720    1.5990   -2.6260 o         1 MOL     -0.421373
     45 C15        -3.8170    1.0180    0.4610 c3        1 MOL     -0.124814
     46 C16        -2.3370    1.3610    0.1360 c         1 MOL      1.124308
     47 O7         -1.7270    2.0600    0.9240 o         1 MOL     -0.903731
     48 O8         -1.7980    1.0160   -0.9730 o         1 MOL     -0.903731
     49 H21        -6.2320    0.6440    0.3070 hn        1 MOL      0.196797
     50 H22        -4.5620    3.0250    0.0760 h1        1 MOL      0.020119
     51 H23        -4.0400   -0.0240    0.2210 hc        1 MOL      0.010565
     52 H24        -3.9620    1.0650    1.5400 hc        1 MOL      0.010565
     53 N5         -3.4600    3.0750   -2.3390 n         1 MOL     -0.460562
     54 C17        -2.8850    3.3370   -3.7020 c3        1 MOL     -0.043367
     55 C18        -2.4540    2.1010   -4.4940 c         1 MOL      0.483072
     56 O9         -2.5640    2.0690   -5.7040 o         1 MOL     -0.532361
     57 H25        -3.0920    3.7150   -1.6570 hn        1 MOL      0.267746
     58 H26        -1.9890    3.9550   -3.6660 h1        1 MOL      0.087170
     59 H27        -3.5540    3.8590   -4.3830 h1        1 MOL      0.087170
     60 N6         -1.9910    1.0220   -3.8200 n         1 MOL     -0.244434
     61 C19        -1.6630   -0.2450   -4.4430 c3        1 MOL      0.015811
     62 C20        -2.2550   -1.4250   -3.6570 c         1 MOL      0.439051
     63 O10        -1.9950   -2.6160   -3.9130 o         1 MOL     -0.516811
     64 C21        -0.1260   -0.1290   -4.6210 c3        1 MOL     -0.370010
     65 C22         0.4890   -0.4080   -3.2950 c         1 MOL      0.591007
     66 N7          0.9660   -1.6320   -3.1050 n         1 MOL     -0.586681
     67 O11         0.6510    0.4810   -2.4430 o         1 MOL     -0.546611
     68 H28        -1.8450    1.1470   -2.8270 hn        1 MOL      0.132703
     69 H29        -2.1310   -0.2500   -5.4290 h1        1 MOL      0.154079
     70 H30         0.2780    0.8710   -4.7840 hc        1 MOL      0.137474
     71 H31         0.1090   -0.8560   -5.3990 hc        1 MOL      0.137474
     72 H32         1.0740   -2.2440   -3.8950 hn        1 MOL      0.320077
     73 H33         1.0800   -1.8960   -2.1290 hn        1 MOL      0.320077
     74 N8         -3.0560   -1.1300   -2.5970 n         1 MOL     -0.223650
     75 C23        -3.6050   -2.1230   -1.6440 c3        1 MOL     -0.110755
     76 C24        -2.6210   -2.6740   -0.5900 c         1 MOL      0.485631
     77 O12        -2.7180   -3.8510   -0.1810 o         1 MOL     -0.487180
     78 H34        -3.3040   -0.1640   -2.4330 hn        1 MOL      0.119475
     79 H35        -3.9730   -3.0190   -2.1490 h1        1 MOL      0.126727
     80 H36        -4.5060   -1.6980   -1.1990 h1        1 MOL      0.126727
     81 N9         -1.7110   -1.8080   -0.1160 n         1 MOL     -0.434036
     82 C25        -0.8080   -2.0160    1.0030 c3        1 MOL      0.138358
     83 C26         0.5690   -1.3770    0.8910 c         1 MOL      0.357399
     84 O13         0.7890   -0.3290    0.3030 o         1 MOL     -0.499746
     85 C27        -1.5750   -1.5150    2.2240 c3        1 MOL     -0.190033
     86 C28        -0.8880   -1.4190    3.6250 ca        1 MOL      0.037350
     87 C29        -0.5710   -2.6410    4.2680 ca        1 MOL     -0.146451
     88 C30        -0.7080   -0.2100    4.3210 ca        1 MOL     -0.146451
     89 C31         0.0090   -2.6490    5.5530 ca        1 MOL     -0.374118
     90 C32        -0.1050   -0.2360    5.6120 ca        1 MOL     -0.374118
     91 C33         0.2960   -1.4540    6.1920 ca        1 MOL      0.537754
     92 O14         0.7650   -1.2840    7.4450 oh        1 MOL     -0.513478
     93 H37        -1.7160   -0.8530   -0.4560 hn        1 MOL      0.309250
     94 H38        -0.5440   -3.0570    1.1700 h1        1 MOL      0.010472
     95 H39        -2.3160   -2.3080    2.3670 hc        1 MOL      0.117634
     96 H40        -2.1310   -0.6010    2.0380 hc        1 MOL      0.117634
     97 H41        -0.8070   -3.6000    3.8180 ha        1 MOL      0.147479
     98 H42        -0.8260    0.7790    3.9120 ha        1 MOL      0.147479
     99 H43         0.1500   -3.5980    6.0490 ha        1 MOL      0.176307
    100 H44         0.0200    0.7040    6.1350 ha        1 MOL      0.176307
    101 H45         0.8110   -0.3320    7.5290 ho        1 MOL      0.347007
    102 N10         1.5630   -2.0670    1.5010 n         1 MOL     -0.254379
    103 C34         2.9970   -1.6140    1.4070 c3        1 MOL     -0.038766
    104 C35         3.4180   -1.9010    0.0110 c         1 MOL      0.016237
    105 O15         3.8950   -0.9800   -0.6610 o         1 MOL     -0.367241
    106 C36         3.9020   -2.3060    2.4880 c3        1 MOL      0.072392
    107 C37         3.4890   -2.0580    3.9430 c3        1 MOL      0.256789
    108 C38         5.3870   -1.9160    2.2980 c3        1 MOL     -0.451880
    109 C39         3.7900   -0.6590    4.5470 c3        1 MOL     -0.323867
    110 H46         1.4230   -3.0080    1.8440 hn        1 MOL      0.250075
    111 H47         3.0330   -0.5500    1.6340 h1        1 MOL      0.136869
    112 H48         3.7360   -3.3660    2.2780 hc        1 MOL     -0.012374
    113 H49         3.8900   -2.8730    4.5540 hc        1 MOL     -0.046582
    114 H50         2.4060   -2.1800    3.9950 hc        1 MOL     -0.046582
    115 H51         5.9870   -2.1720    3.1700 hc        1 MOL      0.133989
    116 H52         5.7510   -2.5680    1.5000 hc        1 MOL      0.133989
    117 H53         5.5290   -0.8400    2.1770 hc        1 MOL      0.133989
    118 H54         4.8220   -0.6410    4.9050 hc        1 MOL      0.080866
    119 H55         3.6110    0.1170    3.8020 hc        1 MOL      0.080866
    120 H56         3.0630   -0.4370    5.3310 hc        1 MOL      0.080866
    121 N11         3.1080   -3.0590   -0.5750 n         1 MOL     -0.067918
    122 C40         3.6410   -3.3860   -1.9730 c3        1 MOL     -0.494550
    123 C41         5.1070   -3.4040   -2.1350 c         1 MOL      0.877296
    124 O16         5.6620   -3.1250   -3.1970 o         1 MOL     -0.559996
    125 C42         3.0990   -4.7140   -2.5320 c3        1 MOL      0.264796
    126 O17         3.6320   -5.7670   -1.7950 oh        1 MOL     -0.665227
    127 H57         2.5330   -3.7360   -0.0880 hn        1 MOL      0.276628
    128 H58         3.2890   -2.5900   -2.6370 h1        1 MOL      0.136926
    129 H59         3.4040   -4.8740   -3.5650 h1        1 MOL      0.045954
    130 H60         2.0200   -4.8710   -2.5550 h1        1 MOL      0.045954
    131 H61         3.2210   -6.5810   -2.0630 ho        1 MOL      0.442540
    132 N12         5.9220   -3.6760   -1.0750 n         1 MOL     -0.469246
    133 C43         7.3770   -3.5750   -1.0140 c3        1 MOL      0.026125
    134 C44         7.9280   -2.1840   -1.2600 c         1 MOL      0.619181
    135 O18         9.1630   -2.0140   -1.4070 o         1 MOL     -0.560600
    136 C45         7.9030   -4.8420   -1.7090 c3        1 MOL     -0.412844
    137 H62         5.4740   -4.0370   -0.2420 hn        1 MOL      0.299995
    138 H63         7.6610   -3.6350    0.0360 h1        1 MOL      0.107155
    139 H64         8.9990   -4.8910   -1.6790 hc        1 MOL      0.129311
    140 H65         7.4820   -5.7540   -1.2880 hc        1 MOL      0.129311
    141 H66         7.5400   -4.9230   -2.7320 hc        1 MOL      0.129311
    142 N13         7.1500   -1.0910   -1.1730 n         1 MOL     -0.509039
    143 C46         7.5510    0.3050   -1.4250 c3        1 MOL      0.256571
    144 C47         7.8470    1.1290   -0.2120 c         1 MOL      0.516741
    145 O19         7.1620    1.0690    0.8200 o         1 MOL     -0.484765
    146 C48         6.5330    0.9760   -2.3200 c3        1 MOL     -0.085045
    147 H67         6.1590   -1.2030   -1.0410 hn        1 MOL      0.206486
    148 H68         8.4710    0.2530   -2.0150 h1        1 MOL      0.014433
    149 H69         6.3030    0.4960   -3.2710 hc        1 MOL      0.020043
    150 H70         5.5930    1.0430   -1.7560 hc        1 MOL      0.020043
    151 H71         6.8550    2.0040   -2.4860 hc        1 MOL      0.020043
    152 N14         8.9290    1.8960   -0.2940 n         1 MOL     -0.545790
    153 C49         9.5400    2.6910    0.8650 c3        1 MOL     -0.080153
    154 C50         9.7260    1.8830    2.1770 c         1 MOL      0.442025
    155 O20         9.7110    2.3830    3.2930 o         1 MOL     -0.523884
    156 C51         8.7190    3.9140    1.1290 c3        1 MOL      0.323963
    157 C52         8.7680    4.7260   -0.1800 c3        1 MOL     -0.234244
    158 C53         7.9860    6.0680    0.0460 c         1 MOL      0.631500
    159 O21         8.5630    7.1940    0.1140 o         1 MOL     -0.657280
    160 O22         6.7720    5.9400    0.1370 o         1 MOL     -0.657280
    161 H72         9.2910    2.0870   -1.2190 hn        1 MOL      0.306932
    162 H73        10.5730    2.9530    0.6200 h1        1 MOL      0.095823
    163 H74         9.1910    4.5170    1.9090 hc        1 MOL     -0.033900
    164 H75         7.7270    3.6960    1.5130 hc        1 MOL     -0.033900
    165 H76         8.1840    4.2160   -0.9380 hc        1 MOL      0.021629
    166 H77         9.8150    4.9140   -0.4010 hc        1 MOL      0.021629
    167 N15        10.0630    0.6480    1.9980 n         1 MOL     -0.254045
    168 C54        10.1660   -0.3750    3.0540 c3        1 MOL     -0.057931
    169 H78        11.2160   -0.5450    3.2930 h1        1 MOL      0.061796
    170 H79         9.6420   -0.0320    3.9460 h1        1 MOL      0.061796
    171 H80         9.7190   -1.3050    2.7040 h1        1 MOL      0.061796
    172 H81        10.0110    0.2960    1.0540 hn        1 MOL      0.206342
    173 Ca1         0.5430    2.1760   -0.5150 Ca        1 MOL      1.780109
    174 O23        -0.9420    4.3900   -0.7060 oh        1 MOL     -0.854975
    175 H82        -0.4770    5.2290   -0.6810 ho        1 MOL      0.425149
    176 H83        -1.7380    4.5530   -0.2040 ho        1 MOL      0.425149
    177 O24         3.0700    1.5730   -0.5880 oh        1 MOL     -0.854975
    178 H84         3.1950    0.6230   -0.6750 ho        1 MOL      0.425149
    179 H85         3.8380    1.8810   -0.1230 ho        1 MOL      0.425149
    180 O25         0.7440    2.5940    2.0760 oh        1 MOL     -0.854975
    181 H86        -0.1370    2.8340    2.3720 ho        1 MOL      0.425149
    182 H87         1.3130    3.2410    2.4910 ho        1 MOL      0.425149
    183 O26         2.4330    4.2390   -0.2800 oh        1 MOL     -0.854975
    184 H88         2.1940    5.1400   -0.4720 ho        1 MOL      0.425149
    185 H89         3.3800    4.2020   -0.4520 ho        1 MOL      0.425149
    186 O27         1.2890    3.3350   -2.8730 oh        1 MOL     -0.854975
    187 H90         1.4030    4.2720   -3.0650 ho        1 MOL      0.425149
    188 H91         1.7980    2.8860   -3.5490 ho        1 MOL      0.425149
@<TRIPOS>BOND
     1    1    2 1   
     2    1    4 1   
     3    1    5 1   
     4    1    6 1   
     5    2    3 2   
     6    2    7 1   
     7    7    8 1   
     8    7   15 1   
     9    8    9 1   
    10    8   11 1   
    11    8   16 1   
    12    9   10 2   
    13    9   19 1   
    14   11   12 1   
    15   11   17 1   
    16   11   18 1   
    17   12   13 1   
    18   12   14 1   
    19   19   20 1   
    20   19   28 1   
    21   20   21 1   
    22   20   23 1   
    23   20   29 1   
    24   21   22 2   
    25   21   41 1   
    26   23   24 1   
    27   23   30 1   
    28   23   31 1   
    29   24   25 1   
    30   24   32 1   
    31   24   33 1   
    32   25   26 1   
    33   25   34 1   
    34   25   35 1   
    35   26   27 1   
    36   26   36 1   
    37   26   37 1   
    38   27   38 1   
    39   27   39 1   
    40   27   40 1   
    41   41   42 1   
    42   41   49 1   
    43   42   43 1   
    44   42   45 1   
    45   42   50 1   
    46   43   44 2   
    47   43   53 1   
    48   45   46 1   
    49   45   51 1   
    50   45   52 1   
    51   46   47 1   
    52   46   48 1   
    53   53   54 1   
    54   53   57 1   
    55   54   55 1   
    56   54   58 1   
    57   54   59 1   
    58   55   56 2   
    59   55   60 1   
    60   60   61 1   
    61   60   68 1   
    62   61   62 1   
    63   61   64 1   
    64   61   69 1   
    65   62   63 2   
    66   62   74 1   
    67   64   65 1   
    68   64   70 1   
    69   64   71 1   
    70   65   66 1   
    71   65   67 2   
    72   66   72 1   
    73   66   73 1   
    74   74   75 1   
    75   74   78 1   
    76   75   76 1   
    77   75   79 1   
    78   75   80 1   
    79   76   77 2   
    80   76   81 1   
    81   81   82 1   
    82   81   93 1   
    83   82   83 1   
    84   82   85 1   
    85   82   94 1   
    86   83   84 2   
    87   83  102 1   
    88   85   86 1   
    89   85   95 1   
    90   85   96 1   
    91   86   87 ar  
    92   86   88 ar  
    93   87   89 ar  
    94   87   97 1   
    95   88   90 ar  
    96   88   98 1   
    97   89   91 ar  
    98   89   99 1   
    99   90   91 ar  
   100   90  100 1   
   101   91   92 1   
   102   92  101 1   
   103  102  103 1   
   104  102  110 1   
   105  103  104 1   
   106  103  106 1   
   107  103  111 1   
   108  104  105 2   
   109  104  121 1   
   110  106  107 1   
   111  106  108 1   
   112  106  112 1   
   113  107  109 1   
   114  107  113 1   
   115  107  114 1   
   116  108  115 1   
   117  108  116 1   
   118  108  117 1   
   119  109  118 1   
   120  109  119 1   
   121  109  120 1   
   122  121  122 1   
   123  121  127 1   
   124  122  123 1   
   125  122  125 1   
   126  122  128 1   
   127  123  124 2   
   128  123  132 1   
   129  125  126 1   
   130  125  129 1   
   131  125  130 1   
   132  126  131 1   
   133  132  133 1   
   134  132  137 1   
   135  133  134 1   
   136  133  136 1   
   137  133  138 1   
   138  134  135 2   
   139  134  142 1   
   140  136  139 1   
   141  136  140 1   
   142  136  141 1   
   143  142  143 1   
   144  142  147 1   
   145  143  144 1   
   146  143  146 1   
   147  143  148 1   
   148  144  145 2   
   149  144  152 1   
   150  146  149 1   
   151  146  150 1   
   152  146  151 1   
   153  152  153 1   
   154  152  161 1   
   155  153  154 1   
   156  153  156 1   
   157  153  162 1   
   158  154  155 2   
   159  154  167 1   
   160  156  157 1   
   161  156  163 1   
   162  156  164 1   
   163  157  158 1   
   164  157  165 1   
   165  157  166 1   
   166  158  159 1   
   167  158  160 1   
   168  167  168 1   
   169  167  172 1   
   170  168  169 1   
   171  168  170 1   
   172  168  171 1   
   173  174  175 1   
   174  174  176 1   
   175  177  178 1   
   176  177  179 1   
   177  180  181 1   
   178  180  182 1   
   179  183  184 1   
   180  183  185 1   
   181  186  187 1   
   182  186  188 1   
@<TRIPOS>SUBSTRUCTURE
     1 MOL         1 TEMP              0 ****  ****    0 ROOT
