@<TRIPOS>MOLECULE
MOL
  185   180     1     0     0
SMALL
resp


@<TRIPOS>ATOM
      1 C1          4.7190    2.1430    1.6180 c3        1 MOL     -0.359171
      2 C2          5.8980    2.3460    0.5890 c         1 MOL      0.753117
      3 O1          5.8430    1.7640   -0.4730 o         1 MOL     -0.560229
      4 H1          4.7090    1.1080    1.9590 hc        1 MOL      0.085522
      5 H2          4.8630    2.8060    2.4720 hc        1 MOL      0.085522
      6 H3          3.7700    2.3750    1.1350 hc        1 MOL      0.085522
      7 N1          7.0370    2.9630    0.8960 n         1 MOL     -0.544298
      8 C3          8.3120    2.8530    0.1810 c3        1 MOL     -0.040539
      9 C4          8.7150    1.4010   -0.2380 c         1 MOL      0.602466
     10 O2          9.6860    1.1500   -0.9590 o         1 MOL     -0.568779
     11 C5          8.4910    3.7600   -1.0380 c3        1 MOL     -0.283420
     12 C6          8.1120    5.2000   -0.6350 c         1 MOL      0.772832
     13 O3          8.5410    5.7300    0.4100 o         1 MOL     -0.657437
     14 O4          7.4570    5.9100   -1.3610 o         1 MOL     -0.657437
     15 H4          7.1020    3.3830    1.8150 hn        1 MOL      0.309487
     16 H5          9.0950    3.2200    0.8470 h1        1 MOL      0.071924
     17 H6          7.9080    3.3580   -1.8760 hc        1 MOL      0.094558
     18 H7          9.4780    3.7410   -1.4810 hc        1 MOL      0.094558
     19 N2          8.1410    0.3330    0.3290 n         1 MOL     -0.235359
     20 C7          8.3380   -1.0850    0.0610 c3        1 MOL     -0.046167
     21 C8          7.1180   -1.8980   -0.4370 c         1 MOL      0.563012
     22 O5          7.2940   -3.0590   -0.8810 o         1 MOL     -0.596382
     23 C9          8.9090   -1.7930    1.3320 c3        1 MOL     -0.124936
     24 C10        10.2150   -1.1260    1.7930 c3        1 MOL      0.104425
     25 C11        10.6710   -1.5600    3.1760 c3        1 MOL     -0.009596
     26 C12        10.9170   -3.0150    3.3810 c3        1 MOL     -0.007176
     27 N3         11.7290   -3.7020    2.3810 n4        1 MOL     -0.323370
     28 H8          7.6000    0.5470    1.1530 hn        1 MOL      0.148911
     29 H9          9.0910   -1.2460   -0.7120 h1        1 MOL      0.118507
     30 H10         9.1770   -2.8110    1.0270 hc        1 MOL      0.038306
     31 H11         8.2380   -1.9030    2.1850 hc        1 MOL      0.038306
     32 H12        10.1490   -0.0360    1.8310 hc        1 MOL     -0.009653
     33 H13        10.9910   -1.3250    1.0450 hc        1 MOL     -0.009653
     34 H14         9.9510   -1.3330    3.9700 hc        1 MOL      0.033952
     35 H15        11.5650   -0.9850    3.4090 hc        1 MOL      0.033952
     36 H16         9.9180   -3.4440    3.3860 hx        1 MOL      0.079025
     37 H17        11.3660   -3.1920    4.3580 hx        1 MOL      0.079025
     38 H18        12.6730   -3.3310    2.4320 hn        1 MOL      0.269694
     39 H19        11.6210   -4.6970    2.4740 hn        1 MOL      0.269694
     40 H20        11.3900   -3.4980    1.4490 hn        1 MOL      0.269694
     41 N4          5.8970   -1.4020   -0.3830 n         1 MOL     -0.392815
     42 C13         4.6610   -2.2290   -0.5890 c3        1 MOL      0.226987
     43 C14         4.0120   -2.0030   -1.9920 c         1 MOL      0.446399
     44 O6          3.9500   -0.8260   -2.3890 o         1 MOL     -0.439985
     45 C15         3.7270   -2.0960    0.7020 c3        1 MOL     -0.411185
     46 C16         2.4450   -3.0050    0.6430 c         1 MOL      0.895916
     47 O7          2.5960   -4.2080    0.8440 o         1 MOL     -0.791730
     48 O8          1.2930   -2.6370    0.3140 o         1 MOL     -0.791730
     49 H21         5.7080   -0.4160   -0.2600 hn        1 MOL      0.210822
     50 H22         4.9560   -3.2730   -0.5810 h1        1 MOL      0.010735
     51 H23         3.4170   -1.0630    0.5540 hc        1 MOL      0.119876
     52 H24         4.3060   -2.1920    1.6150 hc        1 MOL      0.119876
     53 N5          3.5480   -3.0230   -2.7280 n         1 MOL     -0.293763
     54 C17         2.9470   -2.9000   -4.0270 c3        1 MOL     -0.200901
     55 C18         1.7220   -2.0250   -4.1570 c         1 MOL      0.432372
     56 O9          1.4180   -1.3920   -5.1910 o         1 MOL     -0.521140
     57 H25         3.5570   -3.9480   -2.3050 hn        1 MOL      0.204952
     58 H26         2.6380   -3.8480   -4.4630 h1        1 MOL      0.134676
     59 H27         3.7310   -2.5200   -4.6890 h1        1 MOL      0.134676
     60 N6          0.9930   -1.8950   -3.0290 n         1 MOL     -0.118697
     61 C19        -0.2560   -1.0520   -3.0590 c3        1 MOL     -0.201460
     62 C20         0.0640    0.4240   -2.8660 c         1 MOL      0.516598
     63 O10        -0.8370    1.3070   -2.9500 o         1 MOL     -0.557569
     64 C21        -1.1910   -1.5040   -1.9580 c3        1 MOL     -0.089862
     65 C22        -1.6710   -2.9110   -2.1040 c         1 MOL      0.469200
     66 N7         -2.7500   -3.1050   -2.8280 n         1 MOL     -0.645421
     67 O11        -1.0240   -3.8210   -1.6290 o         1 MOL     -0.459198
     68 H28         1.1350   -2.5150   -2.2440 hn        1 MOL      0.164823
     69 H29        -0.6010   -1.0960   -4.0960 h1        1 MOL      0.148702
     70 H30        -2.0590   -0.8460   -1.9210 hc        1 MOL      0.083087
     71 H31        -0.7250   -1.4820   -0.9800 hc        1 MOL      0.083087
     72 H32        -3.0770   -2.4680   -3.5370 hn        1 MOL      0.342354
     73 H33        -3.2070   -3.9930   -2.7150 hn        1 MOL      0.342354
     74 N8          1.2690    0.8620   -2.5710 n         1 MOL     -0.175818
     75 C23         1.6430    2.1950   -2.2220 c3        1 MOL     -0.177476
     76 C24         0.7800    2.7770   -1.1040 c         1 MOL      0.701898
     77 O12         0.7430    2.1940   -0.0510 o         1 MOL     -0.575028
     78 H34         1.9840    0.1710   -2.3950 hn        1 MOL      0.156052
     79 H35         1.5370    2.8810   -3.0680 h1        1 MOL      0.103635
     80 H36         2.6350    2.2820   -1.7740 h1        1 MOL      0.103635
     81 N9          0.2190    3.9730   -1.3400 n         1 MOL     -0.741830
     82 C25        -0.6490    4.9060   -0.5490 c3        1 MOL      0.364783
     83 C26        -1.9320    4.2930    0.0530 c         1 MOL      0.254961
     84 O13        -2.9880    4.9320    0.0330 o         1 MOL     -0.520893
     85 C27         0.1760    5.5490    0.4710 c3        1 MOL     -0.312411
     86 C28        -0.4250    6.7130    1.2740 ca        1 MOL      0.060891
     87 C29        -0.8200    7.8970    0.5760 ca        1 MOL     -0.165510
     88 C30        -0.8970    6.6450    2.5820 ca        1 MOL     -0.165510
     89 C31        -1.4890    8.9340    1.1730 ca        1 MOL     -0.210900
     90 C32        -1.6640    7.6740    3.1520 ca        1 MOL     -0.210900
     91 C33        -1.9510    8.8490    2.4590 ca        1 MOL      0.305678
     92 O14        -2.6280    9.9030    3.0880 oh        1 MOL     -0.487578
     93 H37         0.5030    4.4070   -2.2010 hn        1 MOL      0.358290
     94 H38        -0.9750    5.6380   -1.2820 h1        1 MOL      0.049327
     95 H39         1.0030    6.1000    0.0210 hc        1 MOL      0.126766
     96 H40         0.5920    4.7330    1.0710 hc        1 MOL      0.126766
     97 H41        -0.6940    8.0660   -0.4870 ha        1 MOL      0.134483
     98 H42        -0.7070    5.7950    3.2280 ha        1 MOL      0.134483
     99 H43        -1.7090    9.8960    0.7270 ha        1 MOL      0.133701
    100 H44        -1.9680    7.4740    4.1760 ha        1 MOL      0.133701
    101 H45        -3.0510    9.5930    3.8870 ho        1 MOL      0.351789
    102 N10        -1.8600    3.0640    0.4900 n         1 MOL     -0.039897
    103 C34        -3.0010    2.1730    0.8700 c3        1 MOL     -0.159968
    104 C35        -4.0710    1.9320   -0.2140 c         1 MOL      0.323313
    105 O15        -4.5300    0.8280   -0.2910 o         1 MOL     -0.412553
    106 C36        -3.5750    2.5680    2.2840 c3        1 MOL      0.177678
    107 C37        -2.4360    2.3380    3.2710 c3        1 MOL      0.140992
    108 C38        -4.7260    1.5960    2.6680 c3        1 MOL     -0.261604
    109 C39        -2.8300    2.7610    4.6920 c3        1 MOL     -0.285217
    110 H46        -0.9540    2.6020    0.5010 hn        1 MOL      0.180805
    111 H47        -2.5580    1.1910    1.0670 h1        1 MOL      0.100426
    112 H48        -3.8450    3.6190    2.3210 hc        1 MOL      0.008348
    113 H49        -1.6240    3.0020    2.9870 hc        1 MOL     -0.024145
    114 H50        -2.0760    1.3120    3.1910 hc        1 MOL     -0.024145
    115 H51        -5.2060    1.9370    3.5770 hc        1 MOL      0.070419
    116 H52        -5.5580    1.7320    1.9800 hc        1 MOL      0.070419
    117 H53        -4.5400    0.5210    2.6930 hc        1 MOL      0.070419
    118 H54        -3.0450    3.8260    4.7570 hc        1 MOL      0.060321
    119 H55        -3.6210    2.1000    5.0640 hc        1 MOL      0.060321
    120 H56        -1.9120    2.5870    5.2480 hc        1 MOL      0.060321
    121 N11        -4.3830    2.9240   -1.0710 n         1 MOL     -0.136427
    122 C40        -5.2840    2.8540   -2.2620 c3        1 MOL     -0.065299
    123 C41        -6.6330    2.4440   -1.9780 c         1 MOL      0.466909
    124 O16        -7.2850    2.0310   -2.8600 o         1 MOL     -0.511419
    125 C42        -5.3620    4.1970   -3.0290 c3        1 MOL      0.314810
    126 O17        -4.0920    4.6070   -3.5610 oh        1 MOL     -0.625942
    127 H57        -3.9840    3.8450   -1.0160 hn        1 MOL      0.194048
    128 H58        -4.8940    2.2060   -3.0480 h1        1 MOL      0.111975
    129 H59        -5.7610    4.9990   -2.4190 h1        1 MOL     -0.005913
    130 H60        -6.0990    4.1500   -3.8380 h1        1 MOL     -0.005913
    131 H61        -4.0470    5.5150   -3.8630 ho        1 MOL      0.405601
    132 N12        -7.0870    2.5020   -0.7290 n         1 MOL     -0.466952
    133 C43        -8.2680    1.7930   -0.2310 c3        1 MOL      0.338710
    134 C44        -8.3040    0.2450   -0.5520 c         1 MOL      0.395035
    135 O18        -9.3930   -0.2680   -0.5440 o         1 MOL     -0.542895
    136 C45        -9.5870    2.5250   -0.5090 c3        1 MOL     -0.318634
    137 H62        -6.4330    2.9080   -0.0730 hn        1 MOL      0.213754
    138 H63        -8.2460    1.8610    0.8530 h1        1 MOL      0.028295
    139 H64       -10.3750    2.2930    0.2010 hc        1 MOL      0.083619
    140 H65        -9.4750    3.6030   -0.3480 hc        1 MOL      0.083619
    141 H66        -9.8980    2.4890   -1.5550 hc        1 MOL      0.083619
    142 N13        -7.1680   -0.4250   -0.7040 n         1 MOL     -0.287202
    143 C46        -7.1320   -1.9350   -0.8280 c3        1 MOL      0.364174
    144 C47        -6.6060   -2.6600    0.4230 c         1 MOL      0.297915
    145 O19        -6.0810   -2.0420    1.3400 o         1 MOL     -0.403717
    146 C48        -6.2140   -2.1800   -2.0300 c3        1 MOL     -0.164483
    147 H67        -6.2650   -0.0290   -0.4890 hn        1 MOL      0.075653
    148 H68        -8.1350   -2.2360   -1.1240 h1        1 MOL      0.019822
    149 H69        -5.7460   -3.1660   -2.0550 hc        1 MOL      0.034087
    150 H70        -6.8370   -2.0740   -2.9120 hc        1 MOL      0.034087
    151 H71        -5.3480   -1.5290   -2.0590 hc        1 MOL      0.034087
    152 N14        -6.7260   -4.0110    0.4870 n         1 MOL     -0.571206
    153 C49        -6.0980   -4.9460    1.4100 c3        1 MOL      0.200666
    154 C50        -6.3410   -4.5280    2.9180 c         1 MOL      0.299444
    155 O20        -5.4890   -4.7550    3.8100 o         1 MOL     -0.467665
    156 C51        -4.6690   -5.0110    0.9450 c3        1 MOL      0.073030
    157 C52        -4.0650   -6.3660    1.1750 c3        1 MOL     -0.476448
    158 C53        -2.5300   -6.4310    0.7870 c         1 MOL      1.007802
    159 O21        -1.6310   -6.3850    1.5780 o         1 MOL     -0.866484
    160 O22        -2.1930   -6.2740   -0.3990 o         1 MOL     -0.866484
    161 H72        -7.4230   -4.4560   -0.0950 hn        1 MOL      0.280625
    162 H73        -6.6030   -5.8970    1.2890 h1        1 MOL      0.059376
    163 H74        -4.0320   -4.2260    1.3680 hc        1 MOL      0.061364
    164 H75        -4.5480   -4.7530   -0.1100 hc        1 MOL      0.061364
    165 H76        -4.4760   -7.0900    0.4690 hc        1 MOL      0.084068
    166 H77        -4.3710   -6.6880    2.1720 hc        1 MOL      0.084068
    167 N15        -7.5300   -3.9560    3.1680 n         1 MOL     -0.290587
    168 C54        -7.7470   -3.1300    4.3820 c3        1 MOL     -0.005450
    169 H78        -7.9300   -2.0960    4.0890 h1        1 MOL      0.056254
    170 H79        -8.6080   -3.5100    4.9310 h1        1 MOL      0.056254
    171 H80        -6.8620   -3.1760    5.0170 h1        1 MOL      0.056254
    172 H81        -8.2670   -4.0820    2.5050 hn        1 MOL      0.258189
    173 Ca1         0.1120   -5.0050    0.3200 Ca        1 MOL      1.721818
    174 O23         0.3660   -4.3550    3.0410 oh        1 MOL     -0.824015
    175 H82        -0.4900   -4.5230    3.4360 ho        1 MOL      0.415138
    176 H83         0.9930   -4.7680    3.6310 ho        1 MOL      0.415138
    177 O24         1.3770   -7.3930    0.4900 oh        1 MOL     -0.824015
    178 H84         1.9020   -7.5480    1.2740 ho        1 MOL      0.415138
    179 H85         1.3070   -8.2590    0.0770 ho        1 MOL      0.415138
    180 O25        -1.5020   -3.1070    1.2140 oh        1 MOL     -0.824015
    181 H86        -2.2880   -2.5630    1.2860 ho        1 MOL      0.415138
    182 H87        -0.7720   -2.4970    1.3000 ho        1 MOL      0.415138
    183 O26         1.4930   -5.4320   -1.9650 oh        1 MOL     -0.824015
    184 H88         1.4260   -5.9950   -2.7270 ho        1 MOL      0.415138
    185 H89         2.3180   -5.6740   -1.5500 ho        1 MOL      0.415138
@<TRIPOS>BOND
     1    1    2 1   
     2    1    4 1   
     3    1    5 1   
     4    1    6 1   
     5    2    3 2   
     6    2    7 1   
     7    7    8 1   
     8    7   15 1   
     9    8    9 1   
    10    8   11 1   
    11    8   16 1   
    12    9   10 2   
    13    9   19 1   
    14   11   12 1   
    15   11   17 1   
    16   11   18 1   
    17   12   13 1   
    18   12   14 1   
    19   19   20 1   
    20   19   28 1   
    21   20   21 1   
    22   20   23 1   
    23   20   29 1   
    24   21   22 2   
    25   21   41 1   
    26   23   24 1   
    27   23   30 1   
    28   23   31 1   
    29   24   25 1   
    30   24   32 1   
    31   24   33 1   
    32   25   26 1   
    33   25   34 1   
    34   25   35 1   
    35   26   27 1   
    36   26   36 1   
    37   26   37 1   
    38   27   38 1   
    39   27   39 1   
    40   27   40 1   
    41   41   42 1   
    42   41   49 1   
    43   42   43 1   
    44   42   45 1   
    45   42   50 1   
    46   43   44 2   
    47   43   53 1   
    48   45   46 1   
    49   45   51 1   
    50   45   52 1   
    51   46   47 1   
    52   46   48 1   
    53   53   54 1   
    54   53   57 1   
    55   54   55 1   
    56   54   58 1   
    57   54   59 1   
    58   55   56 2   
    59   55   60 1   
    60   60   61 1   
    61   60   68 1   
    62   61   62 1   
    63   61   64 1   
    64   61   69 1   
    65   62   63 2   
    66   62   74 1   
    67   64   65 1   
    68   64   70 1   
    69   64   71 1   
    70   65   66 1   
    71   65   67 2   
    72   66   72 1   
    73   66   73 1   
    74   74   75 1   
    75   74   78 1   
    76   75   76 1   
    77   75   79 1   
    78   75   80 1   
    79   76   77 2   
    80   76   81 1   
    81   81   82 1   
    82   81   93 1   
    83   82   83 1   
    84   82   85 1   
    85   82   94 1   
    86   83   84 2   
    87   83  102 1   
    88   85   86 1   
    89   85   95 1   
    90   85   96 1   
    91   86   87 ar  
    92   86   88 ar  
    93   87   89 ar  
    94   87   97 1   
    95   88   90 ar  
    96   88   98 1   
    97   89   91 ar  
    98   89   99 1   
    99   90   91 ar  
   100   90  100 1   
   101   91   92 1   
   102   92  101 1   
   103  102  103 1   
   104  102  110 1   
   105  103  104 1   
   106  103  106 1   
   107  103  111 1   
   108  104  105 2   
   109  104  121 1   
   110  106  107 1   
   111  106  108 1   
   112  106  112 1   
   113  107  109 1   
   114  107  113 1   
   115  107  114 1   
   116  108  115 1   
   117  108  116 1   
   118  108  117 1   
   119  109  118 1   
   120  109  119 1   
   121  109  120 1   
   122  121  122 1   
   123  121  127 1   
   124  122  123 1   
   125  122  125 1   
   126  122  128 1   
   127  123  124 2   
   128  123  132 1   
   129  125  126 1   
   130  125  129 1   
   131  125  130 1   
   132  126  131 1   
   133  132  133 1   
   134  132  137 1   
   135  133  134 1   
   136  133  136 1   
   137  133  138 1   
   138  134  135 2   
   139  134  142 1   
   140  136  139 1   
   141  136  140 1   
   142  136  141 1   
   143  142  143 1   
   144  142  147 1   
   145  143  144 1   
   146  143  146 1   
   147  143  148 1   
   148  144  145 2   
   149  144  152 1   
   150  146  149 1   
   151  146  150 1   
   152  146  151 1   
   153  152  153 1   
   154  152  161 1   
   155  153  154 1   
   156  153  156 1   
   157  153  162 1   
   158  154  155 2   
   159  154  167 1   
   160  156  157 1   
   161  156  163 1   
   162  156  164 1   
   163  157  158 1   
   164  157  165 1   
   165  157  166 1   
   166  158  159 1   
   167  158  160 1   
   168  167  168 1   
   169  167  172 1   
   170  168  169 1   
   171  168  170 1   
   172  168  171 1   
   173  174  175 1   
   174  174  176 1   
   175  177  178 1   
   176  177  179 1   
   177  180  181 1   
   178  180  182 1   
   179  183  184 1   
   180  183  185 1   
@<TRIPOS>SUBSTRUCTURE
     1 MOL         1 TEMP              0 ****  ****    0 ROOT
