@<TRIPOS>MOLECULE
MOL
  189   185     1     0     0
SMALL
resp


@<TRIPOS>ATOM
      1 C1          9.5720    0.5720    1.8280 c3        1 MOL     -0.464197
      2 C2          8.2560    0.3160    1.1520 c         1 MOL      0.664933
      3 O1          7.2890   -0.2220    1.7380 o         1 MOL     -0.654456
      4 H1         10.3810    0.4410    1.1090 hc        1 MOL      0.126811
      5 H2          9.5910    1.5910    2.2140 hc        1 MOL      0.126811
      6 H3          9.7010   -0.1320    2.6510 hc        1 MOL      0.126811
      7 N1          8.1940    0.5590   -0.1670 n         1 MOL     -0.399437
      8 C3          6.9840    0.4140   -1.0410 c3        1 MOL      0.021082
      9 C4          6.7990   -1.0320   -1.4310 c         1 MOL      0.640835
     10 O2          6.9070   -1.4300   -2.5810 o         1 MOL     -0.445789
     11 C5          7.0630    1.4670   -2.1150 c3        1 MOL     -0.245283
     12 C6          8.3820    1.3610   -2.8340 c         1 MOL      0.691348
     13 O3          8.4880    0.7530   -3.9260 o         1 MOL     -0.614467
     14 O4          9.4150    1.8670   -2.3040 o         1 MOL     -0.614467
     15 H4          8.9060    1.1530   -0.5560 hn        1 MOL      0.198950
     16 H5          6.0800    0.7470   -0.5130 h1        1 MOL      0.127844
     17 H6          6.8840    2.4320   -1.6430 hc        1 MOL      0.096784
     18 H7          6.3090    1.1520   -2.8420 hc        1 MOL      0.096784
     19 N2          6.6040   -1.9070   -0.4720 n         1 MOL     -0.683997
     20 C7          6.1440   -3.3780   -0.5650 c3        1 MOL      0.226767
     21 C8          4.6330   -3.4230   -1.0320 c         1 MOL      0.309118
     22 O5          4.3610   -4.0780   -2.0150 o         1 MOL     -0.517599
     23 C9          6.2920   -4.0700    0.8290 c3        1 MOL     -0.116208
     24 C10         7.7790   -3.9510    1.1350 c3        1 MOL      0.064830
     25 C11         8.2010   -4.8850    2.2880 c3        1 MOL     -0.056072
     26 C12         9.7400   -4.5790    2.4780 c3        1 MOL      0.033966
     27 N3          9.9540   -5.0390    3.8780 n4        1 MOL     -0.242227
     28 H8          6.5620   -1.4820    0.4430 hn        1 MOL      0.257240
     29 H9          6.6020   -3.9440   -1.3820 h1        1 MOL      0.062768
     30 H10         5.9010   -5.0860    0.8440 hc        1 MOL      0.048819
     31 H11         5.7830   -3.4600    1.5790 hc        1 MOL      0.048819
     32 H12         7.9300   -2.9000    1.3840 hc        1 MOL      0.021380
     33 H13         8.4090   -4.2820    0.3050 hc        1 MOL      0.021380
     34 H14         8.0770   -5.9130    1.9510 hc        1 MOL      0.032606
     35 H15         7.5470   -4.6940    3.1410 hc        1 MOL      0.032606
     36 H16         9.9280   -3.5020    2.4560 hx        1 MOL      0.085721
     37 H17        10.3460   -5.0980    1.7400 hx        1 MOL      0.085721
     38 H18         9.6240   -5.9910    3.9440 hn        1 MOL      0.278507
     39 H19        10.9370   -5.0550    4.1180 hn        1 MOL      0.278507
     40 H20         9.4620   -4.4510    4.5220 hn        1 MOL      0.278507
     41 N4          3.6960   -2.6070   -0.5610 n         1 MOL     -0.074299
     42 C13         3.6680   -1.7450    0.6500 c3        1 MOL     -0.265497
     43 C14         3.4280   -0.2900    0.1040 c         1 MOL      0.339667
     44 O6          3.0090   -0.0690   -1.0020 o         1 MOL     -0.419118
     45 C15         2.6050   -2.1390    1.6290 c3        1 MOL     -0.178961
     46 C16         1.2480   -2.4660    1.0450 c         1 MOL      0.585282
     47 O7          0.9370   -2.0720   -0.1080 o         1 MOL     -0.565026
     48 O8          0.4980   -3.1160    1.7760 o         1 MOL     -0.565026
     49 H21         2.8530   -2.5770   -1.1070 hn        1 MOL      0.231556
     50 H22         4.6350   -1.7010    1.1520 h1        1 MOL      0.185373
     51 H23         2.4500   -1.3430    2.3670 hc        1 MOL      0.065206
     52 H24         2.9460   -3.0400    2.1300 hc        1 MOL      0.065206
     53 N5          3.7500    0.7290    0.8940 n         1 MOL     -0.390761
     54 C17         3.6140    2.1750    0.6370 c3        1 MOL      0.069153
     55 C18         2.4430    2.6660   -0.1370 c         1 MOL      0.449226
     56 O9          1.3410    2.0480   -0.1130 o         1 MOL     -0.558708
     57 H25         4.0660    0.5710    1.8420 hn        1 MOL      0.309210
     58 H26         4.5380    2.4960    0.1660 h1        1 MOL      0.034573
     59 H27         3.5100    2.7600    1.5590 h1        1 MOL      0.034573
     60 N6          2.5880    3.8860   -0.7620 n         1 MOL     -0.425396
     61 C19         1.5590    4.5560   -1.5400 c3        1 MOL      0.169234
     62 C20         1.6490    6.0890   -1.3840 c         1 MOL      0.447264
     63 O10         2.7480    6.5970   -1.3190 o         1 MOL     -0.531391
     64 C21         1.5990    4.1200   -3.0040 c3        1 MOL     -0.406563
     65 C22         2.1140    2.7190   -3.3530 c         1 MOL      0.732703
     66 O11         1.4240    1.7140   -3.0650 o         1 MOL     -0.649846
     67 O12         3.0960    2.6200   -4.0880 o         1 MOL     -0.649846
     68 H28         3.4650    4.3840   -0.7090 hn        1 MOL      0.298865
     69 H29         0.5590    4.2320   -1.2470 h1        1 MOL      0.055859
     70 H30         2.3460    4.7390   -3.5220 hc        1 MOL      0.108794
     71 H31         0.6410    4.4010   -3.4440 hc        1 MOL      0.108794
     72 N7          0.5750    6.8000   -1.2980 n         1 MOL     -0.411792
     73 C23        -0.8680    6.4190   -1.3580 c3        1 MOL      0.055077
     74 C24        -1.3670    5.7480   -0.0880 c         1 MOL      0.474328
     75 O13        -0.6850    5.8460    0.9520 o         1 MOL     -0.498626
     76 H32         0.7300    7.8000   -1.2610 hn        1 MOL      0.304461
     77 H33        -1.0730    5.7870   -2.2160 h1        1 MOL      0.040084
     78 H34        -1.4970    7.2940   -1.5650 h1        1 MOL      0.040084
     79 N8         -2.5340    5.1730   -0.1330 n         1 MOL     -0.357390
     80 C25        -3.3520    4.4820    0.8770 c3        1 MOL      0.010679
     81 C26        -2.7310    3.4420    1.8290 c         1 MOL      0.470759
     82 O14        -3.4420    2.7790    2.6130 o         1 MOL     -0.578353
     83 C27        -4.6640    3.9340    0.3340 c3        1 MOL      0.255081
     84 C28        -4.6410    2.9360   -0.8740 c3        1 MOL      0.054690
     85 O15        -5.3270    5.0510   -0.0640 oh        1 MOL     -0.664864
     86 H35        -3.0660    5.2730   -0.9810 hn        1 MOL      0.293153
     87 H36        -3.6360    5.2310    1.6130 h1        1 MOL      0.081313
     88 H37        -5.2520    3.4020    1.0760 h1        1 MOL      0.005632
     89 H38        -6.1580    5.0610    0.4200 ho        1 MOL      0.412054
     90 H39        -5.5790    2.8410   -1.4080 hc        1 MOL     -0.018912
     91 H40        -3.7480    3.0570   -1.4860 hc        1 MOL     -0.018912
     92 H41        -4.5570    1.9270   -0.4780 hc        1 MOL     -0.018912
     93 N9         -1.3800    3.2840    1.7910 n         1 MOL     -0.257701
     94 C29        -0.8090    2.2970    2.7290 c3        1 MOL     -0.024717
     95 C30        -1.0310    0.8840    2.1760 c         1 MOL      0.354794
     96 O16        -0.3520    0.4880    1.2600 o         1 MOL     -0.284112
     97 C31         0.6740    2.6260    3.1360 c3        1 MOL      0.038965
     98 C32         0.8780    4.0820    3.6720 c3        1 MOL      0.060967
     99 C33         1.2960    1.4860    4.0570 c3        1 MOL     -0.439279
    100 C34        -0.0700    4.4870    4.8200 c3        1 MOL     -0.299150
    101 H42        -0.8290    4.0470    1.4280 hn        1 MOL      0.207004
    102 H43        -1.2710    2.4130    3.7030 h1        1 MOL      0.071048
    103 H44         1.2590    2.5890    2.2240 hc        1 MOL      0.066258
    104 H45         0.8120    4.7710    2.8300 hc        1 MOL      0.024628
    105 H46         1.9180    4.2240    3.9700 hc        1 MOL      0.024628
    106 H47         0.7220    1.3130    4.9700 hc        1 MOL      0.113236
    107 H48         1.2130    0.5650    3.4900 hc        1 MOL      0.113236
    108 H49         2.3310    1.7190    4.3030 hc        1 MOL      0.113236
    109 H50         0.2550    5.5000    5.0060 hc        1 MOL      0.074275
    110 H51        -1.1560    4.4130    4.7280 hc        1 MOL      0.074275
    111 H52         0.2070    3.8820    5.6880 hc        1 MOL      0.074275
    112 N10        -1.8300    0.0890    2.8780 n         1 MOL     -0.262639
    113 C35        -2.1680   -1.2700    2.6500 c3        1 MOL     -0.059514
    114 C36        -3.6130   -1.5120    2.3260 c         1 MOL      0.536663
    115 O17        -3.8930   -2.6480    1.9490 o         1 MOL     -0.596552
    116 C37        -1.7410   -2.1390    3.8420 c3        1 MOL      0.361747
    117 C38        -2.4060   -1.7710    5.1550 c3        1 MOL     -0.139495
    118 O18        -0.3340   -2.2230    4.0680 oh        1 MOL     -0.628650
    119 H53        -2.4010    0.5610    3.5600 hn        1 MOL      0.232141
    120 H54        -1.6810   -1.6920    1.7560 h1        1 MOL      0.077108
    121 H55        -2.1060   -3.1470    3.6100 h1        1 MOL     -0.004471
    122 H56         0.1050   -2.4660    3.2470 ho        1 MOL      0.336566
    123 H57        -2.1220   -2.3630    6.0230 hc        1 MOL      0.019931
    124 H58        -2.1370   -0.7180    5.2980 hc        1 MOL      0.019931
    125 H59        -3.4900   -1.7960    5.0850 hc        1 MOL      0.019931
    126 N11        -4.4700   -0.4960    2.3510 n         1 MOL     -0.276820
    127 C39        -5.8570   -0.6520    1.9540 c3        1 MOL     -0.073766
    128 C40        -6.0410   -1.2260    0.5340 c         1 MOL      0.403783
    129 O19        -5.7350   -0.5200   -0.4200 o         1 MOL     -0.412865
    130 C41        -6.5850    0.7030    2.0940 c3        1 MOL      0.235641
    131 C42        -7.9970    0.6510    1.6690 c3        1 MOL     -0.399720
    132 O20        -6.5140    1.0690    3.4220 oh        1 MOL     -0.600669
    133 H60        -4.1560    0.4360    2.5960 hn        1 MOL      0.249429
    134 H61        -6.2820   -1.3020    2.7220 h1        1 MOL      0.095007
    135 H62        -6.0170    1.4150    1.4920 h1        1 MOL      0.068903
    136 H63        -7.2480    1.6580    3.5800 ho        1 MOL      0.405603
    137 H64        -8.5250    1.5980    1.6880 hc        1 MOL      0.111327
    138 H65        -8.0190    0.3640    0.6090 hc        1 MOL      0.111327
    139 H66        -8.6260   -0.0190    2.2450 hc        1 MOL      0.111327
    140 N12        -6.5640   -2.4670    0.3470 n         1 MOL     -0.340342
    141 C43        -6.9790   -3.1470   -0.9390 c3        1 MOL      0.137920
    142 C44        -5.8470   -2.9480   -1.8880 c         1 MOL      0.490878
    143 O21        -5.9960   -2.4170   -2.9980 o         1 MOL     -0.494961
    144 C45        -8.2860   -2.6380   -1.5900 c3        1 MOL     -0.177069
    145 C46        -9.5500   -2.7450   -0.7040 c3        1 MOL      0.008358
    146 C47       -10.7670   -2.0910   -1.3170 c3        1 MOL      0.125887
    147 C48       -12.0410   -2.4650   -0.6940 c3        1 MOL     -0.016722
    148 N13       -13.2300   -2.2690   -1.5610 n4        1 MOL     -0.150642
    149 H67        -6.9510   -2.8330    1.2140 hn        1 MOL      0.223893
    150 H68        -7.0220   -4.2210   -0.7530 h1        1 MOL      0.058722
    151 H69        -8.5570   -3.0710   -2.5620 hc        1 MOL      0.080801
    152 H70        -8.1290   -1.5720   -1.7320 hc        1 MOL      0.080801
    153 H71        -9.4070   -2.3110    0.2870 hc        1 MOL     -0.008800
    154 H72        -9.7880   -3.8050   -0.5570 hc        1 MOL     -0.008800
    155 H73       -10.8760   -2.2700   -2.3840 hc        1 MOL     -0.004490
    156 H74       -10.6230   -1.0120   -1.3020 hc        1 MOL     -0.004490
    157 H75       -12.1240   -1.8360    0.1900 hx        1 MOL      0.058030
    158 H76       -12.0170   -3.5260   -0.4530 hx        1 MOL      0.058030
    159 H77       -13.0480   -2.8460   -2.3720 hn        1 MOL      0.199331
    160 H78       -14.1010   -2.5990   -1.1610 hn        1 MOL      0.199331
    161 H79       -13.2730   -1.2960   -1.8390 hn        1 MOL      0.199331
    162 N14        -4.6080   -3.3460   -1.5280 n         1 MOL     -0.576704
    163 C49        -3.3590   -2.6720   -1.9610 c3        1 MOL      0.276336
    164 C50        -2.3210   -2.4930   -0.8660 c         1 MOL      0.540726
    165 O22        -1.8090   -1.3870   -0.7500 o         1 MOL     -0.649239
    166 C51        -2.8970   -3.4690   -3.2060 c3        1 MOL     -0.381531
    167 C52        -1.5880   -3.0170   -3.8280 c3        1 MOL      0.225039
    168 C53        -1.6420   -1.5830   -4.1970 c         1 MOL      0.621730
    169 O23        -2.2620   -1.2100   -5.2600 o         1 MOL     -0.690320
    170 O24        -0.9600   -0.8310   -3.4380 o         1 MOL     -0.690320
    171 H80        -4.6590   -3.7080   -0.5750 hn        1 MOL      0.262306
    172 H81        -3.4520   -1.6300   -2.2500 h1        1 MOL      0.053605
    173 H82        -3.6120   -3.3510   -4.0140 hc        1 MOL      0.109138
    174 H83        -2.8220   -4.5400   -3.0660 hc        1 MOL      0.109138
    175 H84        -1.3970   -3.6750   -4.6770 hc        1 MOL     -0.059902
    176 H85        -0.8160   -3.1870   -3.0760 hc        1 MOL     -0.059902
    177 N15        -1.7710   -3.4770   -0.1610 n         1 MOL     -0.168474
    178 C54        -2.0720   -4.9210   -0.3550 c3        1 MOL     -0.242529
    179 H86        -1.1450   -5.4940   -0.3060 h1        1 MOL      0.089042
    180 H87        -2.7500   -5.2600    0.4280 h1        1 MOL      0.089042
    181 H88        -2.5380   -5.0690   -1.3290 h1        1 MOL      0.089042
    182 H89        -1.0240   -3.2100    0.4700 hn        1 MOL      0.214385
    183 Ca1         0.3510   -0.0890   -1.4930 Ca        1 MOL      1.615985
    184 O25         1.6260   -1.7260   -3.1420 oh        1 MOL     -0.963116
    185 H90         2.4530   -1.3170   -3.4090 ho        1 MOL      0.453946
    186 H91         1.5780   -2.5280   -3.6800 ho        1 MOL      0.453946
    187 O26        -1.9300    1.2820   -1.4730 oh        1 MOL     -0.963116
    188 H92        -2.5940    0.6140   -1.6600 ho        1 MOL      0.453946
    189 H93        -2.2150    2.0530   -1.9520 ho        1 MOL      0.453946
@<TRIPOS>BOND
     1    1    2 1   
     2    1    4 1   
     3    1    5 1   
     4    1    6 1   
     5    2    3 2   
     6    2    7 1   
     7    7    8 1   
     8    7   15 1   
     9    8    9 1   
    10    8   11 1   
    11    8   16 1   
    12    9   10 2   
    13    9   19 1   
    14   11   12 1   
    15   11   17 1   
    16   11   18 1   
    17   12   13 1   
    18   12   14 1   
    19   19   20 1   
    20   19   28 1   
    21   20   21 1   
    22   20   23 1   
    23   20   29 1   
    24   21   22 2   
    25   21   41 1   
    26   23   24 1   
    27   23   30 1   
    28   23   31 1   
    29   24   25 1   
    30   24   32 1   
    31   24   33 1   
    32   25   26 1   
    33   25   34 1   
    34   25   35 1   
    35   26   27 1   
    36   26   36 1   
    37   26   37 1   
    38   27   38 1   
    39   27   39 1   
    40   27   40 1   
    41   41   42 1   
    42   41   49 1   
    43   42   43 1   
    44   42   45 1   
    45   42   50 1   
    46   43   44 2   
    47   43   53 1   
    48   45   46 1   
    49   45   51 1   
    50   45   52 1   
    51   46   47 1   
    52   46   48 1   
    53   53   54 1   
    54   53   57 1   
    55   54   55 1   
    56   54   58 1   
    57   54   59 1   
    58   55   56 2   
    59   55   60 1   
    60   60   61 1   
    61   60   68 1   
    62   61   62 1   
    63   61   64 1   
    64   61   69 1   
    65   62   63 2   
    66   62   72 1   
    67   64   65 1   
    68   64   70 1   
    69   64   71 1   
    70   65   66 1   
    71   65   67 1   
    72   72   73 1   
    73   72   76 1   
    74   73   74 1   
    75   73   77 1   
    76   73   78 1   
    77   74   75 2   
    78   74   79 1   
    79   79   80 1   
    80   79   86 1   
    81   80   81 1   
    82   80   83 1   
    83   80   87 1   
    84   81   82 2   
    85   81   93 1   
    86   83   84 1   
    87   83   85 1   
    88   83   88 1   
    89   84   90 1   
    90   84   91 1   
    91   84   92 1   
    92   85   89 1   
    93   93   94 1   
    94   93  101 1   
    95   94   95 1   
    96   94   97 1   
    97   94  102 1   
    98   95   96 2   
    99   95  112 1   
   100   97   98 1   
   101   97   99 1   
   102   97  103 1   
   103   98  100 1   
   104   98  104 1   
   105   98  105 1   
   106   99  106 1   
   107   99  107 1   
   108   99  108 1   
   109  100  109 1   
   110  100  110 1   
   111  100  111 1   
   112  112  113 1   
   113  112  119 1   
   114  113  114 1   
   115  113  116 1   
   116  113  120 1   
   117  114  115 2   
   118  114  126 1   
   119  116  117 1   
   120  116  118 1   
   121  116  121 1   
   122  117  123 1   
   123  117  124 1   
   124  117  125 1   
   125  118  122 1   
   126  126  127 1   
   127  126  133 1   
   128  127  128 1   
   129  127  130 1   
   130  127  134 1   
   131  128  129 2   
   132  128  140 1   
   133  130  131 1   
   134  130  132 1   
   135  130  135 1   
   136  131  137 1   
   137  131  138 1   
   138  131  139 1   
   139  132  136 1   
   140  140  141 1   
   141  140  149 1   
   142  141  142 1   
   143  141  144 1   
   144  141  150 1   
   145  142  143 2   
   146  142  162 1   
   147  144  145 1   
   148  144  151 1   
   149  144  152 1   
   150  145  146 1   
   151  145  153 1   
   152  145  154 1   
   153  146  147 1   
   154  146  155 1   
   155  146  156 1   
   156  147  148 1   
   157  147  157 1   
   158  147  158 1   
   159  148  159 1   
   160  148  160 1   
   161  148  161 1   
   162  162  163 1   
   163  162  171 1   
   164  163  164 1   
   165  163  166 1   
   166  163  172 1   
   167  164  165 2   
   168  164  177 1   
   169  166  167 1   
   170  166  173 1   
   171  166  174 1   
   172  167  168 1   
   173  167  175 1   
   174  167  176 1   
   175  168  169 1   
   176  168  170 1   
   177  177  178 1   
   178  177  182 1   
   179  178  179 1   
   180  178  180 1   
   181  178  181 1   
   182  184  185 1   
   183  184  186 1   
   184  187  188 1   
   185  187  189 1   
@<TRIPOS>SUBSTRUCTURE
     1 MOL         1 TEMP              0 ****  ****    0 ROOT
