@<TRIPOS>MOLECULE
MOL
  181   177     1     0     0
SMALL
resp


@<TRIPOS>ATOM
      1 C1          7.5240    8.1160   -1.3380 c3        1 MOL     -0.376522
      2 C2          6.3000    7.2180   -0.8750 c         1 MOL      0.676545
      3 O1          5.2020    7.7000   -0.6550 o         1 MOL     -0.588209
      4 H1          7.4650    9.0890   -0.8510 hc        1 MOL      0.101957
      5 H2          8.4590    7.6280   -1.0600 hc        1 MOL      0.101957
      6 H3          7.4900    8.2490   -2.4200 hc        1 MOL      0.101957
      7 N1          6.3880    5.9220   -0.8130 n         1 MOL     -0.565587
      8 C3          7.6070    5.1470   -1.0330 c3        1 MOL      0.082228
      9 C4          8.1660    4.3640    0.2260 c         1 MOL      0.368976
     10 O2          9.3270    3.9320    0.2280 o         1 MOL     -0.565588
     11 C5          7.2110    4.1910   -2.1950 c3        1 MOL     -0.173447
     12 C6          6.0140    3.2760   -1.8550 c         1 MOL      0.831570
     13 O3          5.7310    2.8900   -0.7320 o         1 MOL     -0.792509
     14 O4          5.3500    2.7980   -2.7810 o         1 MOL     -0.792509
     15 H4          5.6020    5.4460   -0.4030 hn        1 MOL      0.319962
     16 H5          8.5170    5.5930   -1.4350 h1        1 MOL      0.090599
     17 H6          8.0590    3.5640   -2.4750 hc        1 MOL      0.065307
     18 H7          7.0030    4.6820   -3.1390 hc        1 MOL      0.065307
     19 N2          7.4460    4.2200    1.2890 n         1 MOL     -0.240317
     20 C7          7.8770    3.5520    2.4740 c3        1 MOL      0.198488
     21 C8          7.6050    2.0360    2.5230 c         1 MOL      0.313552
     22 O5          7.7510    1.3830    3.5270 o         1 MOL     -0.478268
     23 C9          7.2390    4.2410    3.7040 c3        1 MOL     -0.278851
     24 H8          6.5160    4.5970    1.2450 hn        1 MOL      0.215044
     25 H9          8.9600    3.6530    2.5540 h1        1 MOL      0.056241
     26 H10         7.6770    3.9700    4.6650 hc        1 MOL      0.076917
     27 H11         7.3660    5.3150    3.5340 hc        1 MOL      0.076917
     28 H12         6.2070    3.9310    3.5840 hc        1 MOL      0.076917
     29 N3          6.9690    1.5100    1.4560 n         1 MOL     -0.073784
     30 C10         7.1170    0.1420    1.1320 c3        1 MOL     -0.235773
     31 C11         7.0210   -0.0400   -0.3570 c         1 MOL      0.546050
     32 O6          5.9460   -0.1460   -0.9620 o         1 MOL     -0.542598
     33 C12         6.1450   -0.7680    2.0120 c3        1 MOL     -0.225385
     34 C13         4.6840   -0.2800    2.1510 c         1 MOL      0.953802
     35 O7          4.2820    0.5030    1.2770 o         1 MOL     -0.785478
     36 O8          3.9770   -0.8180    3.0110 o         1 MOL     -0.785478
     37 H13         6.5130    2.1000    0.7750 hn        1 MOL      0.129406
     38 H14         8.1450   -0.0910    1.4060 h1        1 MOL      0.099633
     39 H15         6.6000   -0.8140    3.0030 hc        1 MOL      0.064923
     40 H16         6.0810   -1.7590    1.5720 hc        1 MOL      0.064923
     41 N4          8.2350   -0.2380   -0.9550 n         1 MOL     -0.348201
     42 C14         8.3490   -0.6590   -2.3580 c3        1 MOL     -0.168873
     43 C15         7.9340   -2.0920   -2.6930 c         1 MOL      0.477916
     44 O9          7.8680   -2.4400   -3.8690 o         1 MOL     -0.531886
     45 H17         9.0650   -0.2940   -0.3790 hn        1 MOL      0.271645
     46 H18         9.3360   -0.3750   -2.7160 h1        1 MOL      0.121037
     47 H19         7.6420   -0.0810   -2.9490 h1        1 MOL      0.121037
     48 N5          7.6440   -2.8800   -1.6990 n         1 MOL     -0.378622
     49 C16         7.4200   -4.3320   -1.8020 c3        1 MOL      0.307468
     50 C17         6.1460   -4.6580   -1.0040 c         1 MOL      0.406754
     51 O10         6.0790   -5.6120   -0.1850 o         1 MOL     -0.525672
     52 C18         8.6920   -5.0840   -1.3230 c3        1 MOL     -0.332839
     53 C19         8.5670   -6.6090   -1.5630 c         1 MOL      0.684166
     54 N6          8.8160   -7.4140   -0.5480 n         1 MOL     -0.791085
     55 O11         8.3980   -7.1220   -2.6840 o         1 MOL     -0.562130
     56 H20         7.4620   -2.4690   -0.7920 hn        1 MOL      0.257672
     57 H21         7.2960   -4.6260   -2.8450 h1        1 MOL      0.017679
     58 H22         8.9040   -4.7850   -0.3010 hc        1 MOL      0.088349
     59 H23         9.5590   -4.7340   -1.8840 hc        1 MOL      0.088349
     60 H24         8.8820   -7.0420    0.3840 hn        1 MOL      0.366862
     61 H25         8.6760   -8.4000   -0.6970 hn        1 MOL      0.366862
     62 N7          5.0860   -3.8270   -1.0190 n         1 MOL     -0.376890
     63 C20         3.9390   -3.9250   -0.1220 c3        1 MOL      0.056793
     64 C21         3.1910   -2.5890   -0.0210 c         1 MOL      0.528667
     65 O12         3.6020   -1.5630   -0.6230 o         1 MOL     -0.633313
     66 H26         5.1060   -3.0460   -1.6580 hn        1 MOL      0.228657
     67 H27         4.2950   -4.1080    0.8910 h1        1 MOL      0.076114
     68 H28         3.1530   -4.6360   -0.3500 h1        1 MOL      0.076114
     69 N8          2.1500   -2.4730    0.7960 n         1 MOL     -0.348184
     70 C22         1.3970   -3.4820    1.5880 c3        1 MOL      0.049326
     71 C23        -0.0990   -3.1610    1.6730 c         1 MOL      0.381839
     72 O13        -0.8900   -4.0990    1.5150 o         1 MOL     -0.507393
     73 C24         1.9570   -3.5820    2.9950 c3        1 MOL      0.251180
     74 C25         1.6570   -4.9300    3.7520 c3        1 MOL     -0.443238
     75 O14         3.3930   -3.4430    2.9310 oh        1 MOL     -0.656116
     76 H29         1.8480   -1.5070    0.8560 hn        1 MOL      0.165843
     77 H30         1.4660   -4.4560    1.0910 h1        1 MOL      0.102201
     78 H31         1.6290   -2.7960    3.6680 h1        1 MOL      0.119255
     79 H32         3.6280   -2.5180    2.8210 ho        1 MOL      0.432156
     80 H33         1.8610   -4.7300    4.8030 hc        1 MOL      0.118853
     81 H34         0.6160   -5.2290    3.6520 hc        1 MOL      0.118853
     82 H35         2.2850   -5.7310    3.3790 hc        1 MOL      0.118853
     83 N9         -0.4960   -1.8550    1.8180 n         1 MOL     -0.140975
     84 C26        -1.9120   -1.4490    1.8680 c3        1 MOL     -0.466440
     85 C27        -2.2900   -0.5250    0.6880 c         1 MOL      0.747271
     86 O15        -1.6060    0.4800    0.4900 o         1 MOL     -0.655258
     87 C28        -2.1860   -0.8690    3.2870 c3        1 MOL      0.383009
     88 C29        -1.5080   -1.6300    4.4510 c3        1 MOL      0.037272
     89 C30        -3.7340   -0.5470    3.4490 c3        1 MOL     -0.181448
     90 C31        -1.6450   -0.7970    5.7340 c3        1 MOL     -0.210505
     91 H36         0.1860   -1.1140    1.8740 hn        1 MOL      0.168976
     92 H37        -2.4780   -2.3770    1.7430 h1        1 MOL      0.154711
     93 H38        -1.8150    0.1540    3.2750 hc        1 MOL      0.017793
     94 H39        -0.4280   -1.6320    4.3670 hc        1 MOL     -0.032004
     95 H40        -2.0230   -2.5870    4.5650 hc        1 MOL     -0.032004
     96 H41        -4.1540    0.0690    2.6620 hc        1 MOL      0.032869
     97 H42        -4.2060   -1.5140    3.6600 hc        1 MOL      0.032869
     98 H43        -3.8640    0.1440    4.2780 hc        1 MOL      0.032869
     99 H44        -2.6620   -0.8900    6.1200 hc        1 MOL      0.045425
    100 H45        -1.0900   -1.2910    6.5370 hc        1 MOL      0.045425
    101 H46        -1.4570    0.2610    5.5580 hc        1 MOL      0.045425
    102 N10        -3.4080   -0.6320   -0.0240 n         1 MOL     -0.367765
    103 C32        -4.4370   -1.6420    0.0620 c3        1 MOL      0.147383
    104 C33        -5.7730   -1.1490   -0.6010 c         1 MOL      0.403825
    105 O16        -5.6490   -0.4340   -1.5900 o         1 MOL     -0.445832
    106 C34        -4.0530   -3.0030   -0.5610 c3        1 MOL     -0.218620
    107 C35        -3.7630   -2.9440   -2.0630 c         1 MOL      0.719390
    108 O17        -4.4460   -3.7030   -2.8140 o         1 MOL     -0.727409
    109 O18        -2.8740   -2.1720   -2.5290 o         1 MOL     -0.727409
    110 H47        -3.7290    0.1600   -0.5540 hn        1 MOL      0.279524
    111 H48        -4.7130   -1.8530    1.0900 h1        1 MOL     -0.013353
    112 H49        -4.8300   -3.7190   -0.2950 hc        1 MOL      0.023664
    113 H50        -3.1070   -3.2770   -0.0730 hc        1 MOL      0.023664
    114 N11        -6.8820   -1.6870   -0.1490 n         1 MOL     -0.444765
    115 C36        -8.2850   -1.3350   -0.4400 c3        1 MOL      0.545254
    116 C37        -9.0140   -0.7940    0.7820 c         1 MOL     -0.023788
    117 O19        -8.8780   -1.3740    1.8320 o         1 MOL     -0.496474
    118 C38        -8.9690   -2.5780   -1.0610 c3        1 MOL     -0.258793
    119 C39       -10.5010   -2.3960   -1.3540 ca        1 MOL      0.175666
    120 C40       -11.4270   -2.5170   -0.3100 ca        1 MOL     -0.251997
    121 C41       -10.9600   -2.1310   -2.6650 ca        1 MOL     -0.251997
    122 C42       -12.7810   -2.3380   -0.5530 ca        1 MOL     -0.018139
    123 C43       -12.3330   -2.1150   -2.9130 ca        1 MOL     -0.018139
    124 C44       -13.2610   -2.2470   -1.8880 ca        1 MOL     -0.207236
    125 H51        -6.8250   -2.2800    0.6580 hn        1 MOL      0.279628
    126 H52        -8.2050   -0.5130   -1.1500 h1        1 MOL     -0.102562
    127 H53        -8.8350   -3.4710   -0.4610 hc        1 MOL      0.083852
    128 H54        -8.4090   -2.7790   -1.9780 hc        1 MOL      0.083852
    129 H55       -11.0420   -2.7190    0.6810 ha        1 MOL      0.152166
    130 H56       -10.2420   -1.8670   -3.4250 ha        1 MOL      0.152166
    131 H57       -13.3860   -2.4140    0.3400 ha        1 MOL      0.084081
    132 H58       -12.6830   -2.0530   -3.9380 ha        1 MOL      0.084081
    133 H59       -14.3280   -2.1200   -2.0380 ha        1 MOL      0.110907
    134 N12        -9.8670    0.2060    0.6500 n         1 MOL      0.399270
    135 C45       -10.2520    0.8120   -0.6050 c3        1 MOL      0.013487
    136 C46        -9.1140    1.7680   -1.1640 c         1 MOL      0.518674
    137 O20        -9.1350    1.9710   -2.3990 o         1 MOL     -0.558788
    138 C47       -11.6160    1.5430   -0.2740 c3        1 MOL     -0.182936
    139 C48       -11.9640    1.0780    1.0950 c3        1 MOL      0.137705
    140 C49       -10.7220    0.6180    1.7560 c3        1 MOL     -0.228555
    141 H60       -10.5240   -0.0180   -1.2560 h1        1 MOL      0.026371
    142 H61       -11.4680    2.6210   -0.2650 hc        1 MOL      0.051708
    143 H62       -12.3810    1.2720   -1.0030 hc        1 MOL      0.051708
    144 H63       -12.4600    1.7890    1.7520 hc        1 MOL     -0.025686
    145 H64       -12.6430    0.2500    0.9340 hc        1 MOL     -0.025686
    146 H65       -10.3110    1.4990    2.2450 h1        1 MOL      0.076357
    147 H66       -10.9060   -0.2350    2.4190 h1        1 MOL      0.076357
    148 N13        -8.2550    2.2900   -0.2640 n         1 MOL     -0.517648
    149 C50        -7.1520    3.2320   -0.5350 c3        1 MOL      0.470276
    150 C51        -7.4930    4.4930   -1.3820 c         1 MOL      0.316366
    151 O21        -7.9430    5.5010   -0.8440 o         1 MOL     -0.564750
    152 C52        -6.4910    3.6870    0.7770 c3        1 MOL     -0.174952
    153 C53        -5.8070    2.4880    1.5710 c3        1 MOL     -0.147304
    154 C54        -4.9860    3.0690    2.7740 c         1 MOL      0.785612
    155 O22        -5.6780    3.5140    3.7470 o         1 MOL     -0.743007
    156 O23        -3.7520    2.9840    2.9120 o         1 MOL     -0.743007
    157 H67        -8.3410    1.9980    0.6980 hn        1 MOL      0.249792
    158 H68        -6.4010    2.6690   -1.0810 h1        1 MOL     -0.027671
    159 H69        -7.1890    4.1630    1.4660 hc        1 MOL      0.042190
    160 H70        -5.7070    4.4290    0.5890 hc        1 MOL      0.042190
    161 H71        -5.1480    1.9120    0.9240 hc        1 MOL     -0.012307
    162 H72        -6.6000    1.8250    1.8950 hc        1 MOL     -0.012307
    163 N14        -7.4530    4.5450   -2.7030 n         1 MOL     -0.222489
    164 C55        -6.8500    3.6300   -3.6800 c3        1 MOL     -0.224318
    165 H73        -7.2850    2.6370   -3.5630 h1        1 MOL      0.096394
    166 H74        -7.0440    3.9940   -4.6890 h1        1 MOL      0.096394
    167 H75        -5.7750    3.5770   -3.5130 h1        1 MOL      0.096394
    168 H76        -7.8240    5.4040   -3.1020 hn        1 MOL      0.244416
    169 Ca1         3.7280    1.2190   -1.2390 Ca        1 MOL      1.778633
    170 O24         1.0000    0.5820   -0.5340 oh        1 MOL     -0.815267
    171 H77         1.2350    0.6750    0.3910 ho        1 MOL      0.415893
    172 H78         0.0600    0.7190   -0.5480 ho        1 MOL      0.415893
    173 O25         3.8950   -0.5050   -3.3740 oh        1 MOL     -0.815267
    174 H79         3.9110   -0.3170   -4.3100 ho        1 MOL      0.415893
    175 H80         4.4260   -1.3010   -3.2820 ho        1 MOL      0.415893
    176 O26         2.1010    2.2340   -3.1820 oh        1 MOL     -0.815267
    177 H81         2.0170    1.8160   -4.0380 ho        1 MOL      0.415893
    178 H82         1.3990    2.8930   -3.1740 ho        1 MOL      0.415893
    179 O27         2.6190    3.1520    0.3260 oh        1 MOL     -0.815267
    180 H83         2.7180    4.1010    0.2700 ho        1 MOL      0.415893
    181 H84         2.3880    2.9860    1.2440 ho        1 MOL      0.415893
@<TRIPOS>BOND
     1    1    2 1   
     2    1    4 1   
     3    1    5 1   
     4    1    6 1   
     5    2    3 2   
     6    2    7 1   
     7    7    8 1   
     8    7   15 1   
     9    8    9 1   
    10    8   11 1   
    11    8   16 1   
    12    9   10 2   
    13    9   19 1   
    14   11   12 1   
    15   11   17 1   
    16   11   18 1   
    17   12   13 1   
    18   12   14 1   
    19   19   20 1   
    20   19   24 1   
    21   20   21 1   
    22   20   23 1   
    23   20   25 1   
    24   21   22 2   
    25   21   29 1   
    26   23   26 1   
    27   23   27 1   
    28   23   28 1   
    29   29   30 1   
    30   29   37 1   
    31   30   31 1   
    32   30   33 1   
    33   30   38 1   
    34   31   32 2   
    35   31   41 1   
    36   33   34 1   
    37   33   39 1   
    38   33   40 1   
    39   34   35 1   
    40   34   36 1   
    41   41   42 1   
    42   41   45 1   
    43   42   43 1   
    44   42   46 1   
    45   42   47 1   
    46   43   44 2   
    47   43   48 1   
    48   48   49 1   
    49   48   56 1   
    50   49   50 1   
    51   49   52 1   
    52   49   57 1   
    53   50   51 2   
    54   50   62 1   
    55   52   53 1   
    56   52   58 1   
    57   52   59 1   
    58   53   54 1   
    59   53   55 2   
    60   54   60 1   
    61   54   61 1   
    62   62   63 1   
    63   62   66 1   
    64   63   64 1   
    65   63   67 1   
    66   63   68 1   
    67   64   65 2   
    68   64   69 1   
    69   69   70 1   
    70   69   76 1   
    71   70   71 1   
    72   70   73 1   
    73   70   77 1   
    74   71   72 2   
    75   71   83 1   
    76   73   74 1   
    77   73   75 1   
    78   73   78 1   
    79   74   80 1   
    80   74   81 1   
    81   74   82 1   
    82   75   79 1   
    83   83   84 1   
    84   83   91 1   
    85   84   85 1   
    86   84   87 1   
    87   84   92 1   
    88   85   86 2   
    89   85  102 1   
    90   87   88 1   
    91   87   89 1   
    92   87   93 1   
    93   88   90 1   
    94   88   94 1   
    95   88   95 1   
    96   89   96 1   
    97   89   97 1   
    98   89   98 1   
    99   90   99 1   
   100   90  100 1   
   101   90  101 1   
   102  102  103 1   
   103  102  110 1   
   104  103  104 1   
   105  103  106 1   
   106  103  111 1   
   107  104  105 2   
   108  104  114 1   
   109  106  107 1   
   110  106  112 1   
   111  106  113 1   
   112  107  108 1   
   113  107  109 1   
   114  114  115 1   
   115  114  125 1   
   116  115  116 1   
   117  115  118 1   
   118  115  126 1   
   119  116  117 2   
   120  116  134 1   
   121  118  119 1   
   122  118  127 1   
   123  118  128 1   
   124  119  120 ar  
   125  119  121 ar  
   126  120  122 ar  
   127  120  129 1   
   128  121  123 ar  
   129  121  130 1   
   130  122  124 ar  
   131  122  131 1   
   132  123  124 ar  
   133  123  132 1   
   134  124  133 1   
   135  134  135 1   
   136  134  140 1   
   137  135  136 1   
   138  135  138 1   
   139  135  141 1   
   140  136  137 2   
   141  136  148 1   
   142  138  139 1   
   143  138  142 1   
   144  138  143 1   
   145  139  140 1   
   146  139  144 1   
   147  139  145 1   
   148  140  146 1   
   149  140  147 1   
   150  148  149 1   
   151  148  157 1   
   152  149  150 1   
   153  149  152 1   
   154  149  158 1   
   155  150  151 2   
   156  150  163 1   
   157  152  153 1   
   158  152  159 1   
   159  152  160 1   
   160  153  154 1   
   161  153  161 1   
   162  153  162 1   
   163  154  155 1   
   164  154  156 1   
   165  163  164 1   
   166  163  168 1   
   167  164  165 1   
   168  164  166 1   
   169  164  167 1   
   170  170  171 1   
   171  170  172 1   
   172  173  174 1   
   173  173  175 1   
   174  176  177 1   
   175  176  178 1   
   176  179  180 1   
   177  179  181 1   
@<TRIPOS>SUBSTRUCTURE
     1 MOL         1 TEMP              0 ****  ****    0 ROOT
