@<TRIPOS>MOLECULE
MOL
  192   187     1     0     0
SMALL
resp


@<TRIPOS>ATOM
      1 C1          3.3720    6.7090    4.2940 c3        1 MOL     -0.246528
      2 C2          3.3330    6.2200    2.8570 c         1 MOL      0.578942
      3 O1          3.2240    7.0680    1.9750 o         1 MOL     -0.572251
      4 H1          2.5900    6.2120    4.8690 hc        1 MOL      0.062212
      5 H2          4.3430    6.4800    4.7310 hc        1 MOL      0.062212
      6 H3          3.2090    7.7860    4.3160 hc        1 MOL      0.062212
      7 N1          3.4430    4.9480    2.6250 n         1 MOL     -0.230207
      8 C3          3.3660    4.3620    1.2870 c3        1 MOL     -0.343385
      9 C4          1.8810    4.1620    0.8290 c         1 MOL      0.864746
     10 O2          1.5310    4.1690   -0.3270 o         1 MOL     -0.640314
     11 C5          4.1990    3.0850    1.2070 c3        1 MOL     -0.085329
     12 C6          3.8770    2.0600    2.3140 c         1 MOL      0.624083
     13 O3          4.2100    2.2880    3.4720 o         1 MOL     -0.678406
     14 O4          3.3330    1.0000    1.8810 o         1 MOL     -0.678406
     15 H4          3.7270    4.3410    3.3840 hn        1 MOL      0.204824
     16 H5          3.8790    5.0860    0.6540 h1        1 MOL      0.118833
     17 H6          5.2630    3.2910    1.2260 hc        1 MOL      0.091174
     18 H7          3.9930    2.5440    0.2780 hc        1 MOL      0.091174
     19 N2          1.0580    3.8090    1.7890 n         1 MOL     -0.714635
     20 C7         -0.2680    3.1640    1.5420 c3        1 MOL      0.466965
     21 C8         -1.2930    4.0830    0.8270 c         1 MOL      0.220478
     22 O5         -1.1950    5.3020    0.9500 o         1 MOL     -0.501694
     23 C9         -0.8660    2.7430    2.9660 c3        1 MOL     -0.432408
     24 C10         0.0470    1.9440    3.8750 c3        1 MOL      0.234045
     25 C11         0.4600    0.5200    3.4140 c3        1 MOL     -0.004606
     26 C12         1.3070   -0.1840    4.5090 c3        1 MOL      0.026488
     27 N3          2.6870    0.2870    4.6860 n4        1 MOL     -0.308248
     28 H8          1.2950    4.0510    2.7410 hn        1 MOL      0.296795
     29 H9         -0.0880    2.2770    0.9520 h1        1 MOL      0.093544
     30 H10        -1.8550    2.3180    2.8270 hc        1 MOL      0.143711
     31 H11        -1.0570    3.6820    3.4750 hc        1 MOL      0.143711
     32 H12        -0.4210    1.8720    4.8510 hc        1 MOL     -0.058234
     33 H13         0.9880    2.4680    4.0280 hc        1 MOL     -0.058234
     34 H14         1.0130    0.5360    2.4810 hc        1 MOL      0.037823
     35 H15        -0.4310   -0.1140    3.4060 hc        1 MOL      0.037823
     36 H16         1.3300   -1.2360    4.2030 hx        1 MOL      0.048080
     37 H17         0.8530   -0.1510    5.4940 hx        1 MOL      0.048080
     38 H18         3.0810    0.5860    3.8090 hn        1 MOL      0.291887
     39 H19         2.7310    1.1880    5.1600 hn        1 MOL      0.291887
     40 H20         3.2310   -0.2880    5.3190 hn        1 MOL      0.291887
     41 N4         -2.2920    3.5810    0.0530 n         1 MOL     -0.403284
     42 C13        -2.6520    2.2090   -0.3880 c3        1 MOL      0.339232
     43 C14        -2.9250    1.1810    0.7050 c         1 MOL      0.301623
     44 O6         -1.9760    0.4830    1.0240 o         1 MOL     -0.603022
     45 C15        -1.6180    1.7470   -1.4440 c3        1 MOL     -0.180404
     46 C16        -1.6040    2.7960   -2.5680 c         1 MOL      0.632279
     47 O7         -0.5580    3.4630   -2.8110 o         1 MOL     -0.704237
     48 O8         -2.6060    3.1700   -3.1600 o         1 MOL     -0.704237
     49 H21        -2.9110    4.3100   -0.2500 hn        1 MOL      0.328360
     50 H22        -3.6060    2.4110   -0.8700 h1        1 MOL      0.039991
     51 H23        -1.9460    0.7600   -1.7660 hc        1 MOL      0.035589
     52 H24        -0.6030    1.7200   -1.0430 hc        1 MOL      0.035589
     53 N5         -4.1970    1.0790    1.2030 n         1 MOL     -0.370020
     54 C17        -5.4230    1.7150    0.8190 c3        1 MOL      0.011716
     55 C18        -6.6200    1.2670    1.7020 c         1 MOL      0.662412
     56 O9         -6.3610    0.8650    2.8330 o         1 MOL     -0.568749
     57 H25        -4.3630    0.3020    1.8230 hn        1 MOL      0.212745
     58 H26        -5.6170    1.3610   -0.1970 h1        1 MOL      0.059021
     59 H27        -5.4040    2.8000    0.7300 h1        1 MOL      0.059021
     60 N6         -7.9150    1.2960    1.2620 n         1 MOL     -0.621457
     61 C19        -8.3990    1.3990   -0.1210 c3        1 MOL      0.007807
     62 C20        -8.9350    0.0830   -0.6670 c         1 MOL      0.639490
     63 O10        -9.0190   -0.1320   -1.8830 o         1 MOL     -0.555222
     64 C21        -9.4310    2.5620   -0.2100 c3        1 MOL     -0.036853
     65 C22       -10.5950    2.4380    0.7320 c         1 MOL      0.633107
     66 O11       -11.5470    3.2450    0.4100 o         1 MOL     -0.614935
     67 O12       -10.6310    1.7190    1.7570 o         1 MOL     -0.614935
     68 H28        -8.6060    1.2890    1.9950 hn        1 MOL      0.316464
     69 H29        -7.5510    1.5790   -0.7830 h1        1 MOL      0.035228
     70 H30        -9.7640    2.6020   -1.2550 hc        1 MOL      0.038507
     71 H31        -8.9830    3.5470   -0.1350 hc        1 MOL      0.038507
     72 N7         -9.5310   -0.7650    0.1820 n         1 MOL     -0.539290
     73 C23       -10.0540   -2.0030   -0.3170 c3        1 MOL      0.016500
     74 C24        -8.9570   -3.0710   -0.6690 c         1 MOL      0.492117
     75 O13        -9.2450   -4.2240   -0.7100 o         1 MOL     -0.538162
     76 H32        -9.9470   -0.4310    1.0410 hn        1 MOL      0.328555
     77 H33       -10.7330   -1.8410   -1.1470 h1        1 MOL      0.076246
     78 H34       -10.7690   -2.4730    0.3580 h1        1 MOL      0.076246
     79 N8         -7.7350   -2.6460   -0.7970 n         1 MOL     -0.309010
     80 C25        -6.5160   -3.4520   -0.9800 c3        1 MOL      0.045941
     81 C26        -5.2710   -2.7990   -0.3620 c         1 MOL      0.431508
     82 O14        -5.0660   -1.5990   -0.5810 o         1 MOL     -0.468616
     83 C27        -6.3330   -3.8890   -2.4940 c3        1 MOL      0.257004
     84 C28        -6.5450   -2.8370   -3.6000 c3        1 MOL     -0.215193
     85 O15        -7.3030   -4.9170   -2.7660 oh        1 MOL     -0.583432
     86 H35        -7.5850   -1.6460   -0.8770 hn        1 MOL      0.164588
     87 H36        -6.6540   -4.3230   -0.3390 h1        1 MOL      0.086845
     88 H37        -5.2890   -4.2130   -2.5020 h1        1 MOL     -0.017967
     89 H38        -7.1700   -5.1050   -3.7010 ho        1 MOL      0.374486
     90 H39        -7.4780   -2.3050   -3.4260 hc        1 MOL      0.069835
     91 H40        -5.7370   -2.1120   -3.5060 hc        1 MOL      0.069835
     92 H41        -6.4420   -3.2860   -4.5860 hc        1 MOL      0.069835
     93 N9         -4.4780   -3.6290    0.2640 n         1 MOL     -0.471162
     94 C29        -3.0870   -3.2760    0.7330 c3        1 MOL     -0.027225
     95 C30        -2.1120   -4.2210    0.0630 c         1 MOL      0.715173
     96 O16        -2.5050   -5.3190   -0.3400 o         1 MOL     -0.574302
     97 C31        -3.0610   -3.3220    2.2900 c3        1 MOL     -0.083586
     98 C32        -3.9170   -2.2000    2.9100 c3        1 MOL      0.160954
     99 C33        -1.6530   -3.4200    2.8360 c3        1 MOL     -0.042662
    100 C34        -3.9860   -2.1370    4.4020 c3        1 MOL     -0.274724
    101 H42        -4.9230   -4.5020    0.5250 hn        1 MOL      0.290044
    102 H43        -2.7840   -2.2670    0.4640 h1        1 MOL      0.171179
    103 H44        -3.4970   -4.2460    2.6550 hc        1 MOL      0.051321
    104 H45        -4.9780   -2.2460    2.6570 hc        1 MOL      0.035113
    105 H46        -3.4930   -1.2740    2.5160 hc        1 MOL      0.035113
    106 H47        -1.6730   -3.5350    3.9190 hc        1 MOL     -0.013027
    107 H48        -1.1670   -4.2840    2.3880 hc        1 MOL     -0.013027
    108 H49        -1.0570   -2.5560    2.5340 hc        1 MOL     -0.013027
    109 H50        -4.0470   -3.0920    4.9140 hc        1 MOL      0.068716
    110 H51        -3.1320   -1.5380    4.7320 hc        1 MOL      0.068716
    111 H52        -4.8640   -1.5590    4.7090 hc        1 MOL      0.068716
    112 N10        -0.9270   -3.7420   -0.1790 n         1 MOL     -0.439322
    113 C35        -0.0220   -4.2920   -1.1930 c3        1 MOL     -0.096745
    114 C36         1.4070   -4.3420   -0.8150 c         1 MOL      0.654648
    115 O17         2.0590   -5.2000   -1.3650 o         1 MOL     -0.550027
    116 C37        -0.2270   -3.5550   -2.6120 c3        1 MOL      0.183456
    117 C38        -0.0870   -2.0370   -2.5830 c3        1 MOL     -0.188859
    118 O18        -1.5710   -3.6670   -3.1640 oh        1 MOL     -0.543458
    119 H53        -0.8240   -2.7590   -0.0070 hn        1 MOL      0.282285
    120 H54        -0.3200   -5.3290   -1.3600 h1        1 MOL      0.112343
    121 H55         0.5190   -3.9480   -3.3120 h1        1 MOL      0.048831
    122 H56        -1.6020   -4.4530   -3.7070 ho        1 MOL      0.373814
    123 H57        -0.8400   -1.7720   -1.8340 hc        1 MOL      0.074619
    124 H58         0.9300   -1.8230   -2.2680 hc        1 MOL      0.074619
    125 H59        -0.2290   -1.6010   -3.5710 hc        1 MOL      0.074619
    126 N11         1.9030   -3.4980    0.1470 n         1 MOL     -0.640421
    127 C39         3.3390   -3.5900    0.6000 c3        1 MOL      0.126817
    128 C40         4.3280   -3.4270   -0.5360 c         1 MOL      0.601721
    129 O19         3.9130   -2.9140   -1.5610 o         1 MOL     -0.500866
    130 C41         3.6260   -4.8510    1.4850 c3        1 MOL      0.331043
    131 C42         2.4650   -5.1390    2.4580 c3        1 MOL     -0.463285
    132 O20         4.6470   -4.7510    2.4010 oh        1 MOL     -0.658915
    133 H60         1.3350   -2.7120    0.4050 hn        1 MOL      0.348034
    134 H61         3.4940   -2.6850    1.1860 h1        1 MOL      0.100754
    135 H62         3.9020   -5.6690    0.8160 h1        1 MOL      0.013028
    136 H63         4.9100   -5.6610    2.5730 ho        1 MOL      0.411392
    137 H64         1.5240   -5.3310    1.9370 hc        1 MOL      0.124369
    138 H65         2.6340   -6.0330    3.0580 hc        1 MOL      0.124369
    139 H66         2.2550   -4.2760    3.1000 hc        1 MOL      0.124369
    140 N12         5.5820   -3.7170   -0.3640 n         1 MOL     -0.585748
    141 C43         6.6490   -3.7040   -1.3600 c3        1 MOL      0.120240
    142 C44         7.0030   -2.3220   -2.0400 c         1 MOL      0.515873
    143 O21         7.9620   -2.2540   -2.8110 o         1 MOL     -0.549610
    144 C45         7.9080   -4.5540   -0.8980 c3        1 MOL     -0.070861
    145 C46         8.4620   -4.1120    0.4000 c3        1 MOL      0.107413
    146 C47         9.7960   -4.7940    0.6190 c3        1 MOL      0.021956
    147 C48        10.4290   -4.4240    1.9680 c3        1 MOL     -0.105889
    148 N13        10.0880   -5.3990    3.0560 n4        1 MOL     -0.252836
    149 H67         5.7310   -4.2020    0.5080 hn        1 MOL      0.253750
    150 H68         6.3510   -4.2380   -2.2650 h1        1 MOL      0.084645
    151 H69         8.6750   -4.4530   -1.6680 hc        1 MOL      0.024543
    152 H70         7.6510   -5.6150   -0.8950 hc        1 MOL      0.024543
    153 H71         7.7630   -4.3980    1.1840 hc        1 MOL     -0.017516
    154 H72         8.5510   -3.0290    0.4280 hc        1 MOL     -0.017516
    155 H73        10.5460   -4.5030   -0.1170 hc        1 MOL      0.038989
    156 H74         9.6670   -5.8740    0.5760 hc        1 MOL      0.038989
    157 H75        10.0710   -3.4250    2.2060 hx        1 MOL      0.123383
    158 H76        11.5020   -4.3750    1.8170 hx        1 MOL      0.123383
    159 H77        10.5130   -5.2130    3.9550 hn        1 MOL      0.247602
    160 H78         9.1150   -5.2740    3.2720 hn        1 MOL      0.247602
    161 H79        10.3620   -6.3500    2.8780 hn        1 MOL      0.247602
    162 N14         6.3010   -1.3000   -1.5800 n         1 MOL     -0.417168
    163 C49         6.5520    0.0540   -2.0680 c3        1 MOL      0.040955
    164 C50         7.5540    0.8660   -1.1780 c         1 MOL      0.474207
    165 O22         7.2630    1.1740   -0.0250 o         1 MOL     -0.515989
    166 C51         5.1660    0.8030   -2.1900 c3        1 MOL      0.210839
    167 C52         5.2880    2.2390   -2.8430 c3        1 MOL     -0.510501
    168 C53         3.9710    2.8900   -3.1180 c         1 MOL      1.016062
    169 O23         2.8940    2.4150   -2.6330 o         1 MOL     -0.835307
    170 O24         3.9050    3.9360   -3.8160 o         1 MOL     -0.835307
    171 H80         5.4820   -1.4120   -1.0010 hn        1 MOL      0.250926
    172 H81         7.0020    0.1400   -3.0540 h1        1 MOL      0.048384
    173 H82         4.8200    0.8760   -1.1590 hc        1 MOL      0.007918
    174 H83         4.5200    0.1610   -2.7900 hc        1 MOL      0.007918
    175 H84         5.8000    2.1890   -3.8050 hc        1 MOL      0.091355
    176 H85         5.7800    2.8740   -2.1120 hc        1 MOL      0.091355
    177 N15         8.6620    1.3630   -1.7390 n         1 MOL     -0.295624
    178 C54         9.7780    2.0790   -1.1050 c3        1 MOL     -0.130570
    179 H86        10.3330    2.6310   -1.8640 h1        1 MOL      0.082518
    180 H87         9.3890    2.7750   -0.3620 h1        1 MOL      0.082518
    181 H88        10.4410    1.3620   -0.6200 h1        1 MOL      0.082518
    182 H89         8.9230    1.0850   -2.6770 hn        1 MOL      0.243734
    183 Ca1         1.6020    4.7280   -3.0870 Ca        1 MOL      1.778450
    184 O25         0.6790    6.6820   -1.6230 oh        1 MOL     -0.910651
    185 H90         0.5540    7.6280   -1.6260 ho        1 MOL      0.444793
    186 H91         0.3350    6.3990   -0.7760 ho        1 MOL      0.444793
    187 O26         3.6630    6.1130   -1.7530 oh        1 MOL     -0.910651
    188 H92         3.6330    6.8300   -1.1240 ho        1 MOL      0.444793
    189 H93         4.5880    5.9270   -1.8740 ho        1 MOL      0.444793
    190 O27         1.3040    3.7460   -5.6080 oh        1 MOL     -0.910651
    191 H94         0.3590    3.7260   -5.7790 ho        1 MOL      0.444793
    192 H95         1.6950    3.3590   -6.3930 ho        1 MOL      0.444793
@<TRIPOS>BOND
     1    1    2 1   
     2    1    4 1   
     3    1    5 1   
     4    1    6 1   
     5    2    3 2   
     6    2    7 1   
     7    7    8 1   
     8    7   15 1   
     9    8    9 1   
    10    8   11 1   
    11    8   16 1   
    12    9   10 2   
    13    9   19 1   
    14   11   12 1   
    15   11   17 1   
    16   11   18 1   
    17   12   13 1   
    18   12   14 1   
    19   19   20 1   
    20   19   28 1   
    21   20   21 1   
    22   20   23 1   
    23   20   29 1   
    24   21   22 2   
    25   21   41 1   
    26   23   24 1   
    27   23   30 1   
    28   23   31 1   
    29   24   25 1   
    30   24   32 1   
    31   24   33 1   
    32   25   26 1   
    33   25   34 1   
    34   25   35 1   
    35   26   27 1   
    36   26   36 1   
    37   26   37 1   
    38   27   38 1   
    39   27   39 1   
    40   27   40 1   
    41   41   42 1   
    42   41   49 1   
    43   42   43 1   
    44   42   45 1   
    45   42   50 1   
    46   43   44 2   
    47   43   53 1   
    48   45   46 1   
    49   45   51 1   
    50   45   52 1   
    51   46   47 1   
    52   46   48 1   
    53   53   54 1   
    54   53   57 1   
    55   54   55 1   
    56   54   58 1   
    57   54   59 1   
    58   55   56 2   
    59   55   60 1   
    60   60   61 1   
    61   60   68 1   
    62   61   62 1   
    63   61   64 1   
    64   61   69 1   
    65   62   63 2   
    66   62   72 1   
    67   64   65 1   
    68   64   70 1   
    69   64   71 1   
    70   65   66 1   
    71   65   67 1   
    72   72   73 1   
    73   72   76 1   
    74   73   74 1   
    75   73   77 1   
    76   73   78 1   
    77   74   75 2   
    78   74   79 1   
    79   79   80 1   
    80   79   86 1   
    81   80   81 1   
    82   80   83 1   
    83   80   87 1   
    84   81   82 2   
    85   81   93 1   
    86   83   84 1   
    87   83   85 1   
    88   83   88 1   
    89   84   90 1   
    90   84   91 1   
    91   84   92 1   
    92   85   89 1   
    93   93   94 1   
    94   93  101 1   
    95   94   95 1   
    96   94   97 1   
    97   94  102 1   
    98   95   96 2   
    99   95  112 1   
   100   97   98 1   
   101   97   99 1   
   102   97  103 1   
   103   98  100 1   
   104   98  104 1   
   105   98  105 1   
   106   99  106 1   
   107   99  107 1   
   108   99  108 1   
   109  100  109 1   
   110  100  110 1   
   111  100  111 1   
   112  112  113 1   
   113  112  119 1   
   114  113  114 1   
   115  113  116 1   
   116  113  120 1   
   117  114  115 2   
   118  114  126 1   
   119  116  117 1   
   120  116  118 1   
   121  116  121 1   
   122  117  123 1   
   123  117  124 1   
   124  117  125 1   
   125  118  122 1   
   126  126  127 1   
   127  126  133 1   
   128  127  128 1   
   129  127  130 1   
   130  127  134 1   
   131  128  129 2   
   132  128  140 1   
   133  130  131 1   
   134  130  132 1   
   135  130  135 1   
   136  131  137 1   
   137  131  138 1   
   138  131  139 1   
   139  132  136 1   
   140  140  141 1   
   141  140  149 1   
   142  141  142 1   
   143  141  144 1   
   144  141  150 1   
   145  142  143 2   
   146  142  162 1   
   147  144  145 1   
   148  144  151 1   
   149  144  152 1   
   150  145  146 1   
   151  145  153 1   
   152  145  154 1   
   153  146  147 1   
   154  146  155 1   
   155  146  156 1   
   156  147  148 1   
   157  147  157 1   
   158  147  158 1   
   159  148  159 1   
   160  148  160 1   
   161  148  161 1   
   162  162  163 1   
   163  162  171 1   
   164  163  164 1   
   165  163  166 1   
   166  163  172 1   
   167  164  165 2   
   168  164  177 1   
   169  166  167 1   
   170  166  173 1   
   171  166  174 1   
   172  167  168 1   
   173  167  175 1   
   174  167  176 1   
   175  168  169 1   
   176  168  170 1   
   177  177  178 1   
   178  177  182 1   
   179  178  179 1   
   180  178  180 1   
   181  178  181 1   
   182  184  185 1   
   183  184  186 1   
   184  187  188 1   
   185  187  189 1   
   186  190  191 1   
   187  190  192 1   
@<TRIPOS>SUBSTRUCTURE
     1 MOL         1 TEMP              0 ****  ****    0 ROOT
