@<TRIPOS>MOLECULE
MOL
  192   187     1     0     0
SMALL
resp


@<TRIPOS>ATOM
      1 C1        -11.9810   -5.7370   -2.4580 c3        1 MOL     -0.381306
      2 C2        -11.7730   -4.3100   -1.9480 c         1 MOL      0.740499
      3 O1        -12.6280   -3.4230   -1.9980 o         1 MOL     -0.596769
      4 H1        -12.4490   -5.7050   -3.4420 hc        1 MOL      0.101242
      5 H2        -11.0180   -6.2410   -2.5300 hc        1 MOL      0.101242
      6 H3        -12.6260   -6.2790   -1.7670 hc        1 MOL      0.101242
      7 N1        -10.6040   -4.0190   -1.4140 n         1 MOL     -0.479665
      8 C3        -10.3730   -2.7540   -0.6420 c3        1 MOL     -0.413196
      9 C4         -8.9590   -2.2480   -0.8230 c         1 MOL      0.911630
     10 O2         -7.9420   -2.8500   -0.4720 o         1 MOL     -0.743031
     11 C5        -10.8390   -3.1230    0.7640 c3        1 MOL      0.095930
     12 C6        -10.0990   -4.2930    1.4420 c         1 MOL      0.710190
     13 O3         -9.0360   -4.7330    1.0110 o         1 MOL     -0.714803
     14 O4        -10.7720   -4.7910    2.3700 o         1 MOL     -0.714803
     15 H4         -9.9230   -4.7610   -1.3130 hn        1 MOL      0.213535
     16 H5        -11.0990   -2.0200   -0.9900 h1        1 MOL      0.159455
     17 H6        -11.8610   -3.3330    1.0530 hc        1 MOL      0.030893
     18 H7        -10.4880   -2.2780    1.3650 hc        1 MOL      0.030893
     19 N2         -8.8510   -1.0080   -1.3550 n         1 MOL     -0.629696
     20 C7         -7.6170   -0.1960   -1.4990 c3        1 MOL      0.081808
     21 C8         -7.0230    0.1090   -0.0850 c         1 MOL      0.800306
     22 O5         -7.6820    0.6700    0.7730 o         1 MOL     -0.538523
     23 C9         -8.1070    1.1070   -2.1460 c3        1 MOL     -0.338980
     24 C10        -7.0200    2.1360   -2.5010 c3        1 MOL      0.055322
     25 C11        -6.4410    1.6310   -3.8310 c3        1 MOL     -0.019221
     26 C12        -5.4430    2.6260   -4.4610 c3        1 MOL     -0.085927
     27 N3         -6.1090    3.7780   -5.0740 n4        1 MOL     -0.328551
     28 H8         -9.7150   -0.5250   -1.5390 hn        1 MOL      0.331798
     29 H9         -6.9550   -0.7760   -2.1540 h1        1 MOL      0.043583
     30 H10        -8.8050    1.5320   -1.4170 hc        1 MOL      0.107269
     31 H11        -8.6730    0.8060   -3.0270 hc        1 MOL      0.107269
     32 H12        -6.2440    2.1810   -1.7460 hc        1 MOL      0.041434
     33 H13        -7.5020    3.1050   -2.6580 hc        1 MOL      0.041434
     34 H14        -7.2390    1.3030   -4.5050 hc        1 MOL      0.043971
     35 H15        -5.8790    0.7030   -3.7290 hc        1 MOL      0.043971
     36 H16        -4.8320    2.1670   -5.2460 hx        1 MOL      0.101980
     37 H17        -4.7810    2.8610   -3.6290 hx        1 MOL      0.101980
     38 H18        -6.8620    4.1100   -4.4830 hn        1 MOL      0.296946
     39 H19        -5.4420    4.4940   -5.3140 hn        1 MOL      0.296946
     40 H20        -6.4490    3.5250   -5.9910 hn        1 MOL      0.296946
     41 N4         -5.7150   -0.2120    0.0540 n         1 MOL     -0.739435
     42 C13        -4.8690    0.1850    1.2130 c3        1 MOL      0.460687
     43 C14        -3.4050    0.1830    0.9040 c         1 MOL      0.258094
     44 O6         -2.9760   -0.6510    0.1030 o         1 MOL     -0.534561
     45 C15        -5.2110   -0.6930    2.4240 c3        1 MOL     -0.066069
     46 C16        -5.5100   -2.1370    1.9520 c         1 MOL      0.638434
     47 O7         -6.5820   -2.7240    2.2590 o         1 MOL     -0.704932
     48 O8         -4.6930   -2.8140    1.3460 o         1 MOL     -0.704932
     49 H21        -5.1870   -0.6150   -0.7110 hn        1 MOL      0.297705
     50 H22        -5.0170    1.2080    1.5700 h1        1 MOL     -0.055114
     51 H23        -6.0440   -0.3300    3.0150 hc        1 MOL      0.014146
     52 H24        -4.2880   -0.7870    2.9970 hc        1 MOL      0.014146
     53 N5         -2.6020    0.9960    1.5280 n         1 MOL     -0.133741
     54 C17        -2.7790    1.9500    2.6230 c3        1 MOL     -0.162377
     55 C18        -3.5180    3.2440    2.2030 c         1 MOL      0.631453
     56 O9         -4.1430    3.3060    1.1400 o         1 MOL     -0.544831
     57 H25        -1.6350    0.8540    1.2780 hn        1 MOL      0.250317
     58 H26        -1.8080    2.2280    3.0010 h1        1 MOL      0.072620
     59 H27        -3.4400    1.5040    3.3770 h1        1 MOL      0.072620
     60 N6         -3.6130    4.1840    3.1190 n         1 MOL     -0.365842
     61 C19        -3.8920    5.5570    2.7500 c3        1 MOL     -0.116033
     62 C20        -2.7950    6.2410    1.9190 c         1 MOL      0.489268
     63 O10        -3.0910    7.0590    1.0310 o         1 MOL     -0.547091
     64 C21        -4.1810    6.3610    4.0630 c3        1 MOL     -0.108373
     65 C22        -3.1970    6.3800    5.1230 c         1 MOL      0.691236
     66 O11        -1.9910    6.0580    4.9430 o         1 MOL     -0.673243
     67 O12        -3.6190    6.6090    6.2350 o         1 MOL     -0.673243
     68 H28        -3.4400    3.8790    4.0680 hn        1 MOL      0.284540
     69 H29        -4.7300    5.5850    2.0670 h1        1 MOL      0.087535
     70 H30        -5.1250    6.0570    4.5130 hc        1 MOL      0.053088
     71 H31        -4.4080    7.3930    3.7650 hc        1 MOL      0.053088
     72 N7         -1.5120    5.8930    2.0970 n         1 MOL     -0.240824
     73 C23        -0.4070    6.3730    1.3630 c3        1 MOL      0.015788
     74 C24        -0.0990    5.5590    0.0740 c         1 MOL      0.387311
     75 O13         0.7460    5.9950   -0.6760 o         1 MOL     -0.548254
     76 H32        -1.3740    5.2000    2.8240 hn        1 MOL      0.198060
     77 H33         0.4600    6.4590    2.0070 h1        1 MOL      0.073789
     78 H34        -0.6130    7.4230    1.1470 h1        1 MOL      0.073789
     79 N8         -0.8240    4.4940   -0.1170 n         1 MOL     -0.065768
     80 C25        -0.7120    3.5490   -1.2600 c3        1 MOL      0.055059
     81 C26        -0.1250    2.2080   -0.7070 c         1 MOL      0.167804
     82 O14        -0.0980    2.0180    0.4980 o         1 MOL     -0.368584
     83 C27        -2.1330    3.2990   -1.7380 c3        1 MOL      0.406763
     84 C28        -3.0320    4.5080   -1.9140 c3        1 MOL     -0.637142
     85 O15        -1.9780    2.5970   -2.9720 oh        1 MOL     -0.688475
     86 H35        -1.5100    4.2880    0.5910 hn        1 MOL      0.032100
     87 H36        -0.1560    3.9040   -2.1280 h1        1 MOL      0.050351
     88 H37        -2.6700    2.6340   -1.0570 h1        1 MOL      0.077592
     89 H38        -1.6030    3.1790   -3.6430 ho        1 MOL      0.386016
     90 H39        -3.2360    4.9610   -0.9380 hc        1 MOL      0.161340
     91 H40        -2.4510    5.1850   -2.5520 hc        1 MOL      0.161340
     92 H41        -4.0260    4.3100   -2.3070 hc        1 MOL      0.161340
     93 N9          0.3540    1.2780   -1.5670 n         1 MOL     -0.272298
     94 C29         0.8850   -0.0310   -1.1280 c3        1 MOL     -0.225435
     95 C30         2.2310    0.1660   -0.4970 c         1 MOL      0.595781
     96 O16         2.6390   -0.5880    0.3900 o         1 MOL     -0.523089
     97 C31         0.9550   -0.9950   -2.2560 c3        1 MOL      0.158582
     98 C32        -0.4840   -1.3380   -2.6900 c3        1 MOL     -0.188930
     99 C33         1.7220   -2.2730   -1.7770 c3        1 MOL     -0.202487
    100 C34        -0.6550   -2.2730   -3.9390 c3        1 MOL     -0.219320
    101 H42         0.2740    1.4640   -2.5500 hn        1 MOL      0.286039
    102 H43         0.2220   -0.4020   -0.3530 h1        1 MOL      0.130531
    103 H44         1.5400   -0.5130   -3.0440 hc        1 MOL      0.001637
    104 H45        -0.9140   -0.3730   -2.9640 hc        1 MOL      0.121726
    105 H46        -0.9450   -1.7690   -1.7970 hc        1 MOL      0.121726
    106 H47         2.7860   -2.2540   -2.0050 hc        1 MOL      0.063463
    107 H48         1.5650   -2.4630   -0.7130 hc        1 MOL      0.063463
    108 H49         1.3260   -3.1250   -2.3440 hc        1 MOL      0.063463
    109 H50        -1.5530   -1.9880   -4.4820 hc        1 MOL      0.057533
    110 H51         0.1130   -2.0640   -4.6760 hc        1 MOL      0.057533
    111 H52        -0.6730   -3.3120   -3.5960 hc        1 MOL      0.057533
    112 N10         2.9940    1.2160   -0.8380 n         1 MOL     -0.332703
    113 C35         4.2490    1.5780   -0.2020 c3        1 MOL     -0.127323
    114 C36         5.2220    2.2650   -1.2240 c         1 MOL      0.647311
    115 O17         4.8380    2.8500   -2.2370 o         1 MOL     -0.537573
    116 C37         3.9140    2.5650    0.8900 c3        1 MOL      0.347821
    117 C38         3.1200    3.7790    0.4520 c3        1 MOL     -0.317960
    118 O18         3.3210    1.8830    2.0020 oh        1 MOL     -0.587209
    119 H53         2.7460    1.6300   -1.7290 hn        1 MOL      0.193159
    120 H54         4.7190    0.6720    0.1790 h1        1 MOL      0.112136
    121 H55         4.8330    2.9200    1.3600 h1        1 MOL     -0.017292
    122 H56         3.9210    1.7840    2.7340 ho        1 MOL      0.396684
    123 H57         2.1200    3.5260    0.0920 hc        1 MOL      0.092424
    124 H58         3.0750    4.4670    1.2980 hc        1 MOL      0.092424
    125 H59         3.6510    4.2280   -0.3830 hc        1 MOL      0.092424
    126 N11         6.5220    2.1340   -1.0660 n         1 MOL     -0.533354
    127 C39         7.5120    2.4170   -2.1010 c3        1 MOL     -0.013460
    128 C40         8.4800    1.1870   -2.2240 c         1 MOL      0.604774
    129 O19         8.6050    0.6260   -3.3430 o         1 MOL     -0.558578
    130 C41         8.1500    3.7800   -1.8860 c3        1 MOL      0.324705
    131 C42         9.0240    4.1360   -3.0430 c3        1 MOL     -0.547005
    132 O20         8.9810    3.6940   -0.7540 oh        1 MOL     -0.663197
    133 H60         6.8830    1.6530   -0.2590 hn        1 MOL      0.263268
    134 H61         6.9320    2.5200   -3.0170 h1        1 MOL      0.110227
    135 H62         7.3620    4.4910   -1.6350 h1        1 MOL      0.056821
    136 H63         9.1920    4.5630   -0.4140 ho        1 MOL      0.419487
    137 H64         9.7450    3.4190   -3.4440 hc        1 MOL      0.146731
    138 H65         8.3340    4.4910   -3.8090 hc        1 MOL      0.146731
    139 H66         9.5810    4.9740   -2.6220 hc        1 MOL      0.146731
    140 N12         9.0980    0.7900   -1.1150 n         1 MOL     -0.470054
    141 C43         9.9340   -0.4180   -0.8110 c3        1 MOL      0.086025
    142 C44         9.5680   -1.1820    0.4470 c         1 MOL      0.472288
    143 O21         9.1490   -0.6870    1.5430 o         1 MOL     -0.503302
    144 C45        11.4430   -0.0750   -0.8970 c3        1 MOL     -0.181661
    145 C46        12.3610   -1.3160   -0.9520 c3        1 MOL      0.039972
    146 C47        13.7920   -0.8070   -0.5430 c3        1 MOL     -0.005031
    147 C48        14.9320   -1.8090   -0.7960 c3        1 MOL      0.033649
    148 N13        16.2080   -1.1900   -0.3150 n4        1 MOL     -0.107187
    149 H67         9.0070    1.4270   -0.3400 hn        1 MOL      0.294526
    150 H68         9.6820   -1.0920   -1.6290 h1        1 MOL      0.074059
    151 H69        11.7150    0.6510   -0.1290 hc        1 MOL      0.099199
    152 H70        11.6370    0.3370   -1.8850 hc        1 MOL      0.099199
    153 H71        12.4350   -1.7610   -1.9500 hc        1 MOL      0.018446
    154 H72        12.0980   -2.0780   -0.2210 hc        1 MOL      0.018446
    155 H73        13.8090   -0.5200    0.5080 hc        1 MOL      0.005769
    156 H74        13.9460    0.1180   -1.1020 hc        1 MOL      0.005769
    157 H75        15.0520   -1.9550   -1.8700 hx        1 MOL      0.067456
    158 H76        14.6700   -2.7470   -0.3000 hx        1 MOL      0.067456
    159 H77        16.2270   -1.1040    0.6910 hn        1 MOL      0.204172
    160 H78        17.0010   -1.7640   -0.5640 hn        1 MOL      0.204172
    161 H79        16.3650   -0.2260   -0.5620 hn        1 MOL      0.204172
    162 N14         9.7180   -2.5050    0.3080 n         1 MOL     -0.376471
    163 C49         9.3070   -3.3780    1.3870 c3        1 MOL      0.307180
    164 C50         7.7740   -3.5060    1.6170 c         1 MOL      0.303238
    165 O22         7.1950   -3.2190    2.6520 o         1 MOL     -0.499766
    166 C51        10.0110   -4.7710    1.2310 c3        1 MOL     -0.268675
    167 C52         9.9470   -5.4970    2.5620 c3        1 MOL     -0.188688
    168 C53        10.2970   -6.9830    2.4610 c         1 MOL      0.752067
    169 O23         9.3610   -7.7260    2.1640 o         1 MOL     -0.665271
    170 O24        11.4130   -7.4390    2.6680 o         1 MOL     -0.665271
    171 H80        10.1080   -2.8780   -0.5400 hn        1 MOL      0.205356
    172 H81         9.7120   -2.8800    2.2640 h1        1 MOL      0.032750
    173 H82        11.0520   -4.5470    1.0110 hc        1 MOL      0.084732
    174 H83         9.5470   -5.4020    0.4690 hc        1 MOL      0.084732
    175 H84         8.9050   -5.4020    2.8610 hc        1 MOL      0.049587
    176 H85        10.4670   -4.9830    3.3740 hc        1 MOL      0.049587
    177 N15         6.8920   -4.1390    0.7780 n         1 MOL     -0.282234
    178 C54         6.9500   -4.6730   -0.5920 c3        1 MOL     -0.050050
    179 H86         6.3200   -4.0670   -1.2430 h1        1 MOL      0.051547
    180 H87         7.9780   -4.6430   -0.9500 h1        1 MOL      0.051547
    181 H88         6.5920   -5.7020   -0.5970 h1        1 MOL      0.051547
    182 H89         5.9910   -4.0960    1.2170 hn        1 MOL      0.289745
    183 Ca1        -6.4430   -4.6750    0.4550 Ca        1 MOL      1.784760
    184 O25        -5.2920   -3.9230   -1.7520 oh        1 MOL     -0.866514
    185 H90        -4.7250   -3.2640   -2.1540 ho        1 MOL      0.426767
    186 H91        -5.9910   -4.0550   -2.4040 ho        1 MOL      0.426767
    187 O26        -3.8550   -5.4570    0.4850 oh        1 MOL     -0.866514
    188 H92        -3.3330   -4.6510    0.5270 ho        1 MOL      0.426767
    189 H93        -3.3300   -6.1060    0.9550 ho        1 MOL      0.426767
    190 O27        -6.6650   -6.0480    2.6750 oh        1 MOL     -0.866514
    191 H94        -6.4190   -5.9800    3.5970 ho        1 MOL      0.426767
    192 H95        -7.2610   -6.7970    2.6440 ho        1 MOL      0.426767
@<TRIPOS>BOND
     1    1    2 1   
     2    1    4 1   
     3    1    5 1   
     4    1    6 1   
     5    2    3 2   
     6    2    7 1   
     7    7    8 1   
     8    7   15 1   
     9    8    9 1   
    10    8   11 1   
    11    8   16 1   
    12    9   10 2   
    13    9   19 1   
    14   11   12 1   
    15   11   17 1   
    16   11   18 1   
    17   12   13 1   
    18   12   14 1   
    19   19   20 1   
    20   19   28 1   
    21   20   21 1   
    22   20   23 1   
    23   20   29 1   
    24   21   22 2   
    25   21   41 1   
    26   23   24 1   
    27   23   30 1   
    28   23   31 1   
    29   24   25 1   
    30   24   32 1   
    31   24   33 1   
    32   25   26 1   
    33   25   34 1   
    34   25   35 1   
    35   26   27 1   
    36   26   36 1   
    37   26   37 1   
    38   27   38 1   
    39   27   39 1   
    40   27   40 1   
    41   41   42 1   
    42   41   49 1   
    43   42   43 1   
    44   42   45 1   
    45   42   50 1   
    46   43   44 2   
    47   43   53 1   
    48   45   46 1   
    49   45   51 1   
    50   45   52 1   
    51   46   47 1   
    52   46   48 1   
    53   53   54 1   
    54   53   57 1   
    55   54   55 1   
    56   54   58 1   
    57   54   59 1   
    58   55   56 2   
    59   55   60 1   
    60   60   61 1   
    61   60   68 1   
    62   61   62 1   
    63   61   64 1   
    64   61   69 1   
    65   62   63 2   
    66   62   72 1   
    67   64   65 1   
    68   64   70 1   
    69   64   71 1   
    70   65   66 1   
    71   65   67 1   
    72   72   73 1   
    73   72   76 1   
    74   73   74 1   
    75   73   77 1   
    76   73   78 1   
    77   74   75 2   
    78   74   79 1   
    79   79   80 1   
    80   79   86 1   
    81   80   81 1   
    82   80   83 1   
    83   80   87 1   
    84   81   82 2   
    85   81   93 1   
    86   83   84 1   
    87   83   85 1   
    88   83   88 1   
    89   84   90 1   
    90   84   91 1   
    91   84   92 1   
    92   85   89 1   
    93   93   94 1   
    94   93  101 1   
    95   94   95 1   
    96   94   97 1   
    97   94  102 1   
    98   95   96 2   
    99   95  112 1   
   100   97   98 1   
   101   97   99 1   
   102   97  103 1   
   103   98  100 1   
   104   98  104 1   
   105   98  105 1   
   106   99  106 1   
   107   99  107 1   
   108   99  108 1   
   109  100  109 1   
   110  100  110 1   
   111  100  111 1   
   112  112  113 1   
   113  112  119 1   
   114  113  114 1   
   115  113  116 1   
   116  113  120 1   
   117  114  115 2   
   118  114  126 1   
   119  116  117 1   
   120  116  118 1   
   121  116  121 1   
   122  117  123 1   
   123  117  124 1   
   124  117  125 1   
   125  118  122 1   
   126  126  127 1   
   127  126  133 1   
   128  127  128 1   
   129  127  130 1   
   130  127  134 1   
   131  128  129 2   
   132  128  140 1   
   133  130  131 1   
   134  130  132 1   
   135  130  135 1   
   136  131  137 1   
   137  131  138 1   
   138  131  139 1   
   139  132  136 1   
   140  140  141 1   
   141  140  149 1   
   142  141  142 1   
   143  141  144 1   
   144  141  150 1   
   145  142  143 2   
   146  142  162 1   
   147  144  145 1   
   148  144  151 1   
   149  144  152 1   
   150  145  146 1   
   151  145  153 1   
   152  145  154 1   
   153  146  147 1   
   154  146  155 1   
   155  146  156 1   
   156  147  148 1   
   157  147  157 1   
   158  147  158 1   
   159  148  159 1   
   160  148  160 1   
   161  148  161 1   
   162  162  163 1   
   163  162  171 1   
   164  163  164 1   
   165  163  166 1   
   166  163  172 1   
   167  164  165 2   
   168  164  177 1   
   169  166  167 1   
   170  166  173 1   
   171  166  174 1   
   172  167  168 1   
   173  167  175 1   
   174  167  176 1   
   175  168  169 1   
   176  168  170 1   
   177  177  178 1   
   178  177  182 1   
   179  178  179 1   
   180  178  180 1   
   181  178  181 1   
   182  184  185 1   
   183  184  186 1   
   184  187  188 1   
   185  187  189 1   
   186  190  191 1   
   187  190  192 1   
@<TRIPOS>SUBSTRUCTURE
     1 MOL         1 TEMP              0 ****  ****    0 ROOT
