@<TRIPOS>MOLECULE
MOL
  189   185     1     0     0
SMALL
resp


@<TRIPOS>ATOM
      1 C1         -3.8740    3.6350    3.8010 c3        1 MOL     -0.357842
      2 C2         -4.7120    3.3780    2.5080 c         1 MOL      0.616241
      3 O1         -4.1640    3.2010    1.4190 o         1 MOL     -0.550121
      4 H1         -3.0270    2.9490    3.8270 hc        1 MOL      0.092079
      5 H2         -3.5080    4.6620    3.7990 hc        1 MOL      0.092079
      6 H3         -4.4990    3.4730    4.6780 hc        1 MOL      0.092079
      7 N1         -5.9950    3.1620    2.7890 n         1 MOL     -0.602507
      8 C3         -6.9250    2.3860    1.9680 c3        1 MOL      0.140440
      9 C4         -6.2450    1.1080    1.5160 c         1 MOL      0.483337
     10 O2         -6.0140    0.9560    0.3240 o         1 MOL     -0.572709
     11 C5         -7.6380    3.2840    0.9070 c3        1 MOL     -0.295210
     12 C6         -6.6340    4.2580    0.1810 c         1 MOL      0.839720
     13 O3         -6.1650    3.8360   -0.9180 o         1 MOL     -0.740730
     14 O4         -6.7210    5.4850    0.4240 o         1 MOL     -0.740730
     15 H4         -6.1690    3.2670    3.7760 hn        1 MOL      0.339281
     16 H5         -7.6800    2.1820    2.7210 h1        1 MOL      0.046328
     17 H6         -8.4120    3.8640    1.4000 hc        1 MOL      0.088473
     18 H7         -8.0210    2.6340    0.1090 hc        1 MOL      0.088473
     19 N2         -5.9060    0.2550    2.4180 n         1 MOL     -0.497344
     20 C7         -5.4330   -1.2150    2.4710 c3        1 MOL      0.138693
     21 C8         -6.2900   -2.2380    1.7650 c         1 MOL      0.354249
     22 O5         -6.6310   -3.2610    2.3290 o         1 MOL     -0.517006
     23 C9         -3.9020   -1.2750    2.1510 c3        1 MOL      0.255994
     24 C10        -3.3130   -2.7240    2.2340 c3        1 MOL     -0.101296
     25 C11        -2.9950   -0.3460    2.9630 c3        1 MOL     -0.466114
     26 C12        -3.6020   -3.5130    3.5330 c3        1 MOL     -0.149850
     27 H8         -6.0380    0.5460    3.3760 hn        1 MOL      0.274786
     28 H9         -5.6170   -1.4910    3.5110 h1        1 MOL      0.032659
     29 H10        -3.9200   -0.9370    1.1150 hc        1 MOL     -0.105932
     30 H11        -2.2370   -2.7020    2.0640 hc        1 MOL      0.079500
     31 H12        -3.5880   -3.2900    1.3390 hc        1 MOL      0.079500
     32 H13        -2.0000   -0.3050    2.5070 hc        1 MOL      0.107076
     33 H14        -3.4180    0.6320    2.7740 hc        1 MOL      0.107076
     34 H15        -2.9340   -0.5900    4.0260 hc        1 MOL      0.107076
     35 H16        -4.5940   -3.9490    3.4500 hc        1 MOL      0.024110
     36 H17        -2.8750   -4.2820    3.8270 hc        1 MOL      0.024110
     37 H18        -3.6460   -2.7570    4.3140 hc        1 MOL      0.024110
     38 N3         -6.7740   -1.9610    0.5770 n         1 MOL     -0.204112
     39 C13        -7.7130   -2.8500   -0.1950 c3        1 MOL      0.065720
     40 C14        -7.0970   -4.2020   -0.5700 c         1 MOL      0.564989
     41 O6         -7.7360   -5.1890   -0.2200 o         1 MOL     -0.613190
     42 C15        -8.4100   -2.1520   -1.3820 c3        1 MOL     -0.151078
     43 C16        -9.4280   -1.0830   -1.0100 c         1 MOL      0.704869
     44 O7         -9.7030   -0.9250    0.2270 o         1 MOL     -0.728315
     45 O8         -9.9170   -0.4550   -1.9810 o         1 MOL     -0.728315
     46 H19        -6.6650   -1.0060    0.2630 hn        1 MOL      0.289395
     47 H20        -8.5540   -3.1370    0.4400 h1        1 MOL      0.046951
     48 H21        -8.8190   -2.9220   -2.0470 hc        1 MOL      0.025268
     49 H22        -7.6120   -1.6420   -1.9200 hc        1 MOL      0.025268
     50 N4         -5.9750   -4.4520   -1.1900 n         1 MOL     -0.463492
     51 C17        -5.1220   -3.4650   -1.7680 c3        1 MOL     -0.016470
     52 C18        -3.8500   -4.1800   -2.2470 c         1 MOL      0.643484
     53 O9         -3.7170   -5.3480   -2.0980 o         1 MOL     -0.559237
     54 H23        -5.7060   -5.4160   -1.3210 hn        1 MOL      0.283090
     55 H24        -4.8610   -2.6070   -1.1380 h1        1 MOL      0.065005
     56 H25        -5.6680   -3.0040   -2.6000 h1        1 MOL      0.065005
     57 N5         -2.9160   -3.4610   -2.8680 n         1 MOL     -0.660008
     58 C19        -2.8730   -2.0360   -3.1120 c3        1 MOL      0.420026
     59 C20        -2.8020   -1.1490   -1.8850 c         1 MOL      0.249124
     60 O10        -3.7070   -0.3740   -1.5550 o         1 MOL     -0.523972
     61 C21        -3.8290   -1.6440   -4.2330 c3        1 MOL     -0.353932
     62 C22        -3.5790   -0.2400   -4.8150 c         1 MOL      0.805962
     63 O11        -2.4270    0.2500   -4.7320 o         1 MOL     -0.725165
     64 O12        -4.4830    0.3430   -5.4150 o         1 MOL     -0.725165
     65 H26        -2.0970   -3.9900   -3.1530 hn        1 MOL      0.305840
     66 H27        -1.9030   -1.7430   -3.5070 h1        1 MOL      0.000121
     67 H28        -4.8970   -1.7330   -4.0240 hc        1 MOL      0.071989
     68 H29        -3.6330   -2.2820   -5.0910 hc        1 MOL      0.071989
     69 N6         -1.6660   -1.1400   -1.1360 n         1 MOL     -0.236747
     70 C23        -0.3260   -1.7610   -1.2850 c3        1 MOL     -0.102275
     71 C24        -0.0480   -3.1290   -0.6510 c         1 MOL      0.552807
     72 O13        -0.8940   -3.7560   -0.0120 o         1 MOL     -0.494404
     73 H30        -1.7030   -0.5060   -0.3560 hn        1 MOL      0.228863
     74 H31         0.3160   -1.1120   -0.6740 h1        1 MOL      0.073408
     75 H32         0.0450   -1.8200   -2.3120 h1        1 MOL      0.073408
     76 N7          1.1950   -3.6140   -0.8320 n         1 MOL     -0.505199
     77 C25         1.6630   -4.8650   -0.2380 c3        1 MOL      0.085474
     78 C26         2.2930   -4.7050    1.1480 c         1 MOL      0.455167
     79 O14         2.3520   -5.7050    1.8450 o         1 MOL     -0.549533
     80 C27         2.7250   -5.5470   -1.1810 c3        1 MOL      0.131858
     81 C28         4.1240   -4.9530   -1.1340 c3        1 MOL     -0.256606
     82 C29         4.2080   -3.5170   -1.6910 c         1 MOL      0.534890
     83 N8          3.8750   -3.2930   -2.9170 n         1 MOL     -0.729790
     84 O15         4.3600   -2.5590   -0.9620 o         1 MOL     -0.495271
     85 H33         1.7790   -3.0860   -1.4730 hn        1 MOL      0.241267
     86 H34         0.8670   -5.5890   -0.1010 h1        1 MOL      0.086564
     87 H35         2.3490   -5.5200   -2.2060 hc        1 MOL     -0.014603
     88 H36         2.7570   -6.5950   -0.8630 hc        1 MOL     -0.014603
     89 H37         4.7070   -5.5660   -1.8240 hc        1 MOL      0.094176
     90 H38         4.5740   -4.9330   -0.1470 hc        1 MOL      0.094176
     91 H39         3.4800   -4.0510   -3.4680 hn        1 MOL      0.375799
     92 H40         3.7730   -2.3020   -3.0890 hn        1 MOL      0.375799
     93 N9          2.7590   -3.5210    1.5560 n         1 MOL     -0.089977
     94 C30         3.2790   -3.2240    2.9460 c3        1 MOL     -0.288396
     95 C31         4.7260   -2.5790    2.9740 c         1 MOL      0.628040
     96 O16         5.4270   -2.6620    3.9940 o         1 MOL     -0.559755
     97 C32         2.3350   -2.3310    3.7820 c3        1 MOL      0.143484
     98 C33         0.9010   -2.8740    3.9360 c3        1 MOL     -0.160861
     99 C34         2.1830   -0.9660    3.0930 c3        1 MOL     -0.160861
    100 H41         2.7880   -2.8220    0.8340 hn        1 MOL      0.166538
    101 H42         3.4930   -4.1750    3.4360 h1        1 MOL      0.153493
    102 H43         2.7510   -2.2490    4.7980 hc        1 MOL      0.026025
    103 H44         1.0440   -3.8190    4.4530 hc        1 MOL      0.040377
    104 H45         0.3230   -2.3560    4.7030 hc        1 MOL      0.040377
    105 H46         0.4100   -2.9340    2.9640 hc        1 MOL      0.040377
    106 H47         1.3970   -1.0170    2.3470 hc        1 MOL      0.040377
    107 H48         1.8350   -0.1970    3.7860 hc        1 MOL      0.040377
    108 H49         3.1180   -0.5670    2.7070 hc        1 MOL      0.040377
    109 N10         5.2710   -2.0200    1.8450 n         1 MOL     -0.433875
    110 C35         6.6430   -1.5230    1.7810 c3        1 MOL      0.081608
    111 C36         6.7440   -0.1210    1.1460 c         1 MOL      0.572591
    112 O17         7.6580    0.6070    1.4810 o         1 MOL     -0.569114
    113 C37         7.5380   -2.5150    0.9970 c3        1 MOL     -0.256400
    114 C38         7.5670   -3.8800    1.6510 c         1 MOL      0.603907
    115 N11         8.5620   -4.1150    2.4970 n         1 MOL     -0.701299
    116 O18         6.8590   -4.7970    1.2160 o         1 MOL     -0.549369
    117 H50         4.7750   -2.0560    0.9640 hn        1 MOL      0.239568
    118 H51         7.0400   -1.3680    2.7790 h1        1 MOL      0.077783
    119 H52         8.5830   -2.2110    0.9450 hc        1 MOL      0.102588
    120 H53         7.1220   -2.6090   -0.0070 hc        1 MOL      0.102588
    121 H54         9.2070   -3.3990    2.8010 hn        1 MOL      0.334250
    122 H55         8.8100   -5.0920    2.6510 hn        1 MOL      0.334250
    123 N12         5.9010    0.2620    0.1650 n         1 MOL     -0.579752
    124 C39         6.1330    1.4360   -0.6920 c3        1 MOL      0.406296
    125 C40         4.7890    2.2510   -0.8830 c         1 MOL      0.466105
    126 O19         3.7160    1.8440   -1.2500 o         1 MOL     -0.524708
    127 C41         6.6780    1.0110   -2.0580 c3        1 MOL     -0.176232
    128 C42         8.0090    0.3060   -2.1460 ca        1 MOL      0.091391
    129 C43         9.2130    1.0210   -2.1340 ca        1 MOL     -0.147322
    130 C44         8.1310   -1.0660   -2.4120 ca        1 MOL     -0.147322
    131 C45        10.4330    0.4060   -2.1840 ca        1 MOL     -0.273112
    132 C46         9.3450   -1.7600   -2.5380 ca        1 MOL     -0.273112
    133 C47        10.5330   -0.9810   -2.4350 ca        1 MOL      0.316946
    134 O20        11.7180   -1.6150   -2.5240 oh        1 MOL     -0.487839
    135 H56         5.2820   -0.4040   -0.2790 hn        1 MOL      0.240871
    136 H57         6.9320    2.0540   -0.2960 h1        1 MOL      0.016645
    137 H58         6.7700    1.9370   -2.6220 hc        1 MOL      0.058293
    138 H59         5.8850    0.4890   -2.5870 hc        1 MOL      0.058293
    139 H60         9.1040    2.0930   -2.0720 ha        1 MOL      0.126047
    140 H61         7.2370   -1.6170   -2.6860 ha        1 MOL      0.126047
    141 H62        11.3570    0.9340   -1.9840 ha        1 MOL      0.146158
    142 H63         9.4050   -2.8300   -2.6510 ha        1 MOL      0.146158
    143 H64        12.4190   -0.9660   -2.4870 ho        1 MOL      0.359359
    144 N13         4.9520    3.5220   -0.5710 n         1 MOL     -0.811773
    145 C48         3.9650    4.5960   -0.7770 c3        1 MOL      0.537884
    146 C49         2.7530    4.5500    0.0460 c         1 MOL      0.297629
    147 O21         2.0030    5.5480    0.0580 o         1 MOL     -0.451656
    148 C50         3.7380    4.8810   -2.3100 c3        1 MOL      0.055566
    149 C51         3.2730    6.3150   -2.6690 c3        1 MOL     -0.427542
    150 C52         4.2500    7.3700   -2.0460 c         1 MOL      0.699184
    151 O22         5.4110    7.1800   -2.3920 o         1 MOL     -0.731540
    152 O23         4.0220    8.0970   -1.0220 o         1 MOL     -0.731540
    153 H65         5.8510    3.7180   -0.1420 hn        1 MOL      0.325949
    154 H66         4.4070    5.4940   -0.3360 h1        1 MOL      0.059783
    155 H67         2.9970    4.1360   -2.5840 hc        1 MOL      0.008783
    156 H68         4.6670    4.6460   -2.8250 hc        1 MOL      0.008783
    157 H69         2.2680    6.3960   -2.2690 hc        1 MOL      0.078712
    158 H70         3.4480    6.4610   -3.7360 hc        1 MOL      0.078712
    159 N14         2.5280    3.5140    0.9460 n         1 MOL     -0.326402
    160 C53         1.3920    3.5970    1.9090 c3        1 MOL     -0.158899
    161 C54         1.7340    4.3600    3.1910 c         1 MOL      0.536630
    162 O24         0.9250    5.0380    3.8510 o         1 MOL     -0.548321
    163 C55         0.8050    2.2610    2.3060 c3        1 MOL     -0.127743
    164 C56         0.2610    1.6020    1.0800 c3        1 MOL      0.331002
    165 C57        -0.9330    2.1760    0.2430 c         1 MOL      0.456880
    166 O25        -0.5700    2.9320   -0.6420 o         1 MOL     -0.565697
    167 O26        -2.0740    1.6390    0.3710 o         1 MOL     -0.565697
    168 H71         3.2660    2.8340    1.0410 hn        1 MOL      0.281562
    169 H72         0.5620    4.2220    1.5920 h1        1 MOL      0.172348
    170 H73        -0.0710    2.4080    2.9500 hc        1 MOL      0.017792
    171 H74         1.5910    1.6230    2.7150 hc        1 MOL      0.017792
    172 H75        -0.0380    0.6130    1.4310 hc        1 MOL     -0.096500
    173 H76         1.1170    1.3460    0.4540 hc        1 MOL     -0.096500
    174 N15         3.0220    4.3170    3.4930 n         1 MOL     -0.221098
    175 C58         3.5920    5.0000    4.6040 c3        1 MOL     -0.343580
    176 H77         4.5520    4.5480    4.8530 h1        1 MOL      0.123899
    177 H78         3.7390    6.0490    4.3490 h1        1 MOL      0.123899
    178 H79         2.9220    4.9230    5.4600 h1        1 MOL      0.123899
    179 H80         3.6350    4.0030    2.7660 hn        1 MOL      0.201127
    180 Ca1        -4.0860    2.2030   -1.0120 Ca        1 MOL      1.755386
    181 O27        -2.4610    2.5340   -3.0260 oh        1 MOL     -0.923445
    182 H81        -2.5150    2.2690   -3.9350 ho        1 MOL      0.434499
    183 H82        -1.5530    2.7960   -2.8970 ho        1 MOL      0.434499
    184 O28        -5.4610    1.8440   -3.1970 oh        1 MOL     -0.923445
    185 H83        -6.1820    2.4510   -3.3840 ho        1 MOL      0.434499
    186 H84        -5.2180    1.5000   -4.0540 ho        1 MOL      0.434499
    187 O29        -3.0710    4.7230   -0.9110 oh        1 MOL     -0.923445
    188 H85        -2.1420    4.9290   -1.0230 ho        1 MOL      0.434499
    189 H86        -3.4230    5.4550   -0.4160 ho        1 MOL      0.434499
@<TRIPOS>BOND
     1    1    2 1   
     2    1    4 1   
     3    1    5 1   
     4    1    6 1   
     5    2    3 2   
     6    2    7 1   
     7    7    8 1   
     8    7   15 1   
     9    8    9 1   
    10    8   11 1   
    11    8   16 1   
    12    9   10 2   
    13    9   19 1   
    14   11   12 1   
    15   11   17 1   
    16   11   18 1   
    17   12   13 1   
    18   12   14 1   
    19   19   20 1   
    20   19   27 1   
    21   20   21 1   
    22   20   23 1   
    23   20   28 1   
    24   21   22 2   
    25   21   38 1   
    26   23   24 1   
    27   23   25 1   
    28   23   29 1   
    29   24   26 1   
    30   24   30 1   
    31   24   31 1   
    32   25   32 1   
    33   25   33 1   
    34   25   34 1   
    35   26   35 1   
    36   26   36 1   
    37   26   37 1   
    38   38   39 1   
    39   38   46 1   
    40   39   40 1   
    41   39   42 1   
    42   39   47 1   
    43   40   41 2   
    44   40   50 1   
    45   42   43 1   
    46   42   48 1   
    47   42   49 1   
    48   43   44 1   
    49   43   45 1   
    50   50   51 1   
    51   50   54 1   
    52   51   52 1   
    53   51   55 1   
    54   51   56 1   
    55   52   53 2   
    56   52   57 1   
    57   57   58 1   
    58   57   65 1   
    59   58   59 1   
    60   58   61 1   
    61   58   66 1   
    62   59   60 2   
    63   59   69 1   
    64   61   62 1   
    65   61   67 1   
    66   61   68 1   
    67   62   63 1   
    68   62   64 1   
    69   69   70 1   
    70   69   73 1   
    71   70   71 1   
    72   70   74 1   
    73   70   75 1   
    74   71   72 2   
    75   71   76 1   
    76   76   77 1   
    77   76   85 1   
    78   77   78 1   
    79   77   80 1   
    80   77   86 1   
    81   78   79 2   
    82   78   93 1   
    83   80   81 1   
    84   80   87 1   
    85   80   88 1   
    86   81   82 1   
    87   81   89 1   
    88   81   90 1   
    89   82   83 1   
    90   82   84 2   
    91   83   91 1   
    92   83   92 1   
    93   93   94 1   
    94   93  100 1   
    95   94   95 1   
    96   94   97 1   
    97   94  101 1   
    98   95   96 2   
    99   95  109 1   
   100   97   98 1   
   101   97   99 1   
   102   97  102 1   
   103   98  103 1   
   104   98  104 1   
   105   98  105 1   
   106   99  106 1   
   107   99  107 1   
   108   99  108 1   
   109  109  110 1   
   110  109  117 1   
   111  110  111 1   
   112  110  113 1   
   113  110  118 1   
   114  111  112 2   
   115  111  123 1   
   116  113  114 1   
   117  113  119 1   
   118  113  120 1   
   119  114  115 1   
   120  114  116 2   
   121  115  121 1   
   122  115  122 1   
   123  123  124 1   
   124  123  135 1   
   125  124  125 1   
   126  124  127 1   
   127  124  136 1   
   128  125  126 2   
   129  125  144 1   
   130  127  128 1   
   131  127  137 1   
   132  127  138 1   
   133  128  129 ar  
   134  128  130 ar  
   135  129  131 ar  
   136  129  139 1   
   137  130  132 ar  
   138  130  140 1   
   139  131  133 ar  
   140  131  141 1   
   141  132  133 ar  
   142  132  142 1   
   143  133  134 1   
   144  134  143 1   
   145  144  145 1   
   146  144  153 1   
   147  145  146 1   
   148  145  148 1   
   149  145  154 1   
   150  146  147 2   
   151  146  159 1   
   152  148  149 1   
   153  148  155 1   
   154  148  156 1   
   155  149  150 1   
   156  149  157 1   
   157  149  158 1   
   158  150  151 1   
   159  150  152 1   
   160  159  160 1   
   161  159  168 1   
   162  160  161 1   
   163  160  163 1   
   164  160  169 1   
   165  161  162 2   
   166  161  174 1   
   167  163  164 1   
   168  163  170 1   
   169  163  171 1   
   170  164  165 1   
   171  164  172 1   
   172  164  173 1   
   173  165  166 1   
   174  165  167 1   
   175  174  175 1   
   176  174  179 1   
   177  175  176 1   
   178  175  177 1   
   179  175  178 1   
   180  181  182 1   
   181  181  183 1   
   182  184  185 1   
   183  184  186 1   
   184  187  188 1   
   185  187  189 1   
@<TRIPOS>SUBSTRUCTURE
     1 MOL         1 TEMP              0 ****  ****    0 ROOT
