@<TRIPOS>MOLECULE
MOL
  175   173     1     0     0
SMALL
resp


@<TRIPOS>ATOM
      1 C1         -7.0120    7.2330    1.9660 c3        1 MOL     -0.323879
      2 C2         -7.8490    6.4400    0.9200 c         1 MOL      0.667873
      3 O1         -7.6250    6.5750   -0.3340 o         1 MOL     -0.621805
      4 H1         -6.2510    6.5800    2.3920 hc        1 MOL      0.074805
      5 H2         -6.5310    8.0820    1.4790 hc        1 MOL      0.074805
      6 H3         -7.6670    7.5930    2.7590 hc        1 MOL      0.074805
      7 N1         -8.7830    5.7300    1.3650 n         1 MOL     -0.471763
      8 C3         -9.5710    4.8130    0.5070 c3        1 MOL      0.244056
      9 C4         -8.8630    3.6190   -0.2130 c         1 MOL      0.636875
     10 O2         -9.4810    2.7260   -0.6910 o         1 MOL     -0.525708
     11 C5        -10.8100    4.3500    1.2610 c3        1 MOL     -0.395968
     12 C6        -12.0730    4.1910    0.4090 c         1 MOL      0.764321
     13 O3        -12.3200    5.0220   -0.4650 o         1 MOL     -0.730787
     14 O4        -12.8260    3.2130    0.6660 o         1 MOL     -0.730787
     15 H4         -8.9750    5.6750    2.3580 hn        1 MOL      0.263671
     16 H5        -10.0300    5.3950   -0.2960 h1        1 MOL      0.034151
     17 H6        -11.1300    5.1300    1.9500 hc        1 MOL      0.057181
     18 H7        -10.6020    3.3790    1.7070 hc        1 MOL      0.057181
     19 N2         -7.5170    3.6040   -0.2750 n         1 MOL     -0.799293
     20 C7         -6.8190    2.6070   -1.0730 c3        1 MOL      0.812315
     21 C8         -5.4770    2.3130   -0.4400 c         1 MOL      0.331473
     22 O5         -4.9150    3.2020    0.1520 o         1 MOL     -0.503494
     23 C9         -6.7470    2.9720   -2.5930 c3        1 MOL     -0.506453
     24 H8         -7.0820    4.4190    0.1240 hn        1 MOL      0.275713
     25 H9         -7.4380    1.7350   -0.8830 h1        1 MOL     -0.104519
     26 H10        -7.7340    2.7960   -3.0020 hc        1 MOL      0.119755
     27 H11        -6.5320    4.0350   -2.6910 hc        1 MOL      0.119755
     28 H12        -5.8690    2.4480   -2.9900 hc        1 MOL      0.119755
     29 N3         -4.8370    1.2220   -0.8960 n         1 MOL     -0.425599
     30 C10        -5.2420    0.0550   -1.6460 c3        1 MOL      0.050220
     31 C11        -5.3590   -1.2740   -0.8220 c         1 MOL      0.543326
     32 O6         -4.7790   -1.4050    0.2750 o         1 MOL     -0.542776
     33 C12        -4.2430   -0.3040   -2.7310 c3        1 MOL     -0.101970
     34 C13        -2.9040   -0.7030   -2.1410 c         1 MOL      0.688414
     35 O7         -2.4320   -1.8480   -2.4700 o         1 MOL     -0.726315
     36 O8         -2.3340    0.0310   -1.2980 o         1 MOL     -0.726315
     37 H13        -3.8480    1.2080   -0.6790 hn        1 MOL      0.318347
     38 H14        -6.2160    0.2180   -2.1110 h1        1 MOL     -0.022012
     39 H15        -4.0050    0.4780   -3.4480 hc        1 MOL      0.022875
     40 H16        -4.6900   -1.0880   -3.3390 hc        1 MOL      0.022875
     41 N4         -6.2990   -2.0920   -1.3100 n         1 MOL     -0.368264
     42 C14        -6.7240   -3.3680   -0.7440 c3        1 MOL      0.064954
     43 C15        -6.4190   -4.5740   -1.6620 c         1 MOL      0.500192
     44 O9         -7.3210   -4.8710   -2.4600 o         1 MOL     -0.554043
     45 H17        -6.7100   -1.8320   -2.1880 hn        1 MOL      0.308505
     46 H18        -7.7950   -3.3550   -0.5890 h1        1 MOL      0.035093
     47 H19        -6.2150   -3.5000    0.2200 h1        1 MOL      0.035093
     48 N5         -5.1930   -5.1040   -1.7510 n         1 MOL     -0.458908
     49 C16        -4.0170   -4.6270   -1.0280 c3        1 MOL     -0.042704
     50 C17        -3.8160   -5.4150    0.2760 c         1 MOL      0.523430
     51 O10        -3.6530   -6.6410    0.3250 o         1 MOL     -0.542995
     52 C18        -2.8630   -4.8160   -2.0470 c3        1 MOL      0.069417
     53 C19        -1.4620   -4.4730   -1.5450 c         1 MOL      0.446933
     54 N6         -0.4590   -4.7430   -2.3950 n         1 MOL     -0.689414
     55 O11        -1.2330   -3.8500   -0.4940 o         1 MOL     -0.507116
     56 H20        -5.1910   -5.9900   -2.2380 hn        1 MOL      0.300181
     57 H21        -4.0920   -3.5610   -0.7930 h1        1 MOL      0.078093
     58 H22        -3.0760   -4.1610   -2.8970 hc        1 MOL      0.024001
     59 H23        -2.7630   -5.8250   -2.4520 hc        1 MOL      0.024001
     60 H24        -0.6240   -5.0970   -3.3200 hn        1 MOL      0.348234
     61 H25         0.3980   -4.3120   -2.0680 hn        1 MOL      0.348234
     62 N7         -3.4720   -4.6960    1.3340 n         1 MOL     -0.366603
     63 C20        -3.0090   -5.2550    2.6390 c3        1 MOL     -0.095130
     64 C21        -1.5030   -5.5530    2.8690 c         1 MOL      0.565361
     65 O12        -1.2200   -6.3120    3.7580 o         1 MOL     -0.587839
     66 H26        -3.3210   -3.7080    1.1990 hn        1 MOL      0.274149
     67 H27        -3.5820   -6.1440    2.8710 h1        1 MOL      0.077858
     68 H28        -3.2650   -4.5300    3.4220 h1        1 MOL      0.077858
     69 N8         -0.5910   -4.9000    2.1600 n         1 MOL     -0.298911
     70 C22         0.8520   -4.9840    2.2910 c3        1 MOL     -0.079963
     71 C23         1.5350   -3.6140    1.9340 c         1 MOL      0.242925
     72 O13         0.9160   -2.7770    1.2510 o         1 MOL     -0.513639
     73 C24         1.4990   -6.0640    1.4350 c3        1 MOL      0.410284
     74 C25         1.2220   -7.4050    2.0510 c3        1 MOL     -0.465192
     75 O14         1.1770   -6.0040    0.0470 oh        1 MOL     -0.613946
     76 H29        -0.9000   -4.3170    1.3930 hn        1 MOL      0.330475
     77 H30         1.0360   -5.1490    3.3470 h1        1 MOL      0.065752
     78 H31         2.5620   -5.8790    1.4690 h1        1 MOL     -0.046558
     79 H32         1.7520   -5.3350   -0.3340 ho        1 MOL      0.441474
     80 H33         0.1440   -7.5530    2.0600 hc        1 MOL      0.122040
     81 H34         1.5560   -8.2570    1.4510 hc        1 MOL      0.122040
     82 H35         1.6130   -7.5170    3.0630 hc        1 MOL      0.122040
     83 N9          2.7360   -3.3760    2.4120 n         1 MOL      0.034034
     84 C26         3.4890   -2.2320    2.1280 c3        1 MOL      0.038020
     85 C27         4.4490   -2.5810    1.0030 c         1 MOL      0.164379
     86 O15         5.3950   -3.3450    1.2680 o         1 MOL     -0.526903
     87 C28         4.2380   -1.7830    3.4080 c3        1 MOL      0.034858
     88 C29         5.1850   -0.5610    3.0660 c3        1 MOL      0.228723
     89 C30         3.2880   -1.3140    4.5070 c3        1 MOL     -0.315952
     90 C31         6.0070    0.0510    4.2280 c3        1 MOL     -0.274644
     91 H36         3.1450   -4.0730    3.0270 hn        1 MOL      0.161416
     92 H37         2.8380   -1.3910    1.8830 h1        1 MOL      0.027076
     93 H38         4.7950   -2.6890    3.6470 hc        1 MOL      0.024718
     94 H39         4.6530    0.3380    2.7640 hc        1 MOL     -0.035515
     95 H40         5.9080   -0.8430    2.2990 hc        1 MOL     -0.035515
     96 H41         2.5360   -2.0870    4.6850 hc        1 MOL      0.074112
     97 H42         3.7680   -1.1020    5.4630 hc        1 MOL      0.074112
     98 H43         2.7120   -0.4770    4.1080 hc        1 MOL      0.074112
     99 H44         6.3690   -0.7420    4.8760 hc        1 MOL      0.051530
    100 H45         6.7600    0.6910    3.7750 hc        1 MOL      0.051530
    101 H46         5.3080    0.6930    4.7680 hc        1 MOL      0.051530
    102 N10         4.1320   -2.0880   -0.2010 n         1 MOL      0.021723
    103 C32         4.8670   -2.4110   -1.4360 c3        1 MOL      0.212842
    104 C33         5.8020   -1.2600   -1.9730 c         1 MOL      0.384288
    105 O16         6.4020   -1.2910   -3.0150 o         1 MOL     -0.522109
    106 C34         3.8240   -2.8730   -2.5390 c3        1 MOL     -0.177043
    107 C35         2.6150   -3.5870   -1.9910 c         1 MOL      0.641967
    108 O17         2.8010   -4.8230   -1.7440 o         1 MOL     -0.669348
    109 O18         1.5920   -2.9670   -1.5780 o         1 MOL     -0.669348
    110 H47         3.3010   -1.5250   -0.2290 hn        1 MOL      0.162205
    111 H48         5.4830   -3.2690   -1.1460 h1        1 MOL      0.043833
    112 H49         4.4130   -3.5480   -3.1640 hc        1 MOL      0.027196
    113 H50         3.5770   -2.0050   -3.1600 hc        1 MOL      0.027196
    114 N11         5.9920   -0.2250   -1.0970 n         1 MOL     -0.322917
    115 C36         6.8880    0.9560   -1.2300 c3        1 MOL      0.223638
    116 C37         6.2430    2.2050   -0.5980 c         1 MOL      0.447867
    117 O19         5.7600    2.1150    0.5260 o         1 MOL     -0.441203
    118 C38         8.2370    0.5820   -0.6230 c3        1 MOL     -0.173517
    119 C39         9.3070    1.6220   -0.9930 ca        1 MOL      0.051392
    120 C40         9.6450    2.6060   -0.1280 ca        1 MOL     -0.137338
    121 C41        10.0060    1.4850   -2.2110 ca        1 MOL     -0.137338
    122 C42        10.6540    3.4960   -0.4180 ca        1 MOL     -0.089782
    123 C43        10.8780    2.4940   -2.6270 ca        1 MOL     -0.089782
    124 C44        11.1360    3.5450   -1.7580 ca        1 MOL     -0.163146
    125 H51         5.5870   -0.3540   -0.1770 hn        1 MOL      0.061589
    126 H52         7.0590    1.1070   -2.2950 h1        1 MOL      0.038373
    127 H53         8.6750   -0.4070   -0.7990 hc        1 MOL      0.106671
    128 H54         8.0490    0.5910    0.4510 hc        1 MOL      0.106671
    129 H55         9.0060    2.7190    0.7440 ha        1 MOL      0.112632
    130 H56         9.7890    0.6920   -2.9220 ha        1 MOL      0.112632
    131 H57        10.9000    4.3320    0.2130 ha        1 MOL      0.106066
    132 H58        11.3520    2.4830   -3.6000 ha        1 MOL      0.106066
    133 H59        11.8290    4.2700   -2.1450 ha        1 MOL      0.110468
    134 N12         6.2410    3.4550   -1.1870 n         1 MOL     -0.548104
    135 C45         6.1670    4.7780   -0.4560 c3        1 MOL      0.152869
    136 C46         4.8120    5.1770    0.1180 c         1 MOL      0.383847
    137 O20         4.7010    6.3200    0.5670 o         1 MOL     -0.557415
    138 C47         6.7150    5.8800   -1.4430 c3        1 MOL     -0.112222
    139 C48         7.6130    5.0750   -2.3950 c3        1 MOL     -0.113944
    140 C49         6.7860    3.7500   -2.4880 c3        1 MOL      0.154326
    141 H60         6.8590    4.6590    0.3770 h1        1 MOL      0.081215
    142 H61         5.9500    6.3010   -2.0960 hc        1 MOL      0.076101
    143 H62         7.2110    6.6460   -0.8570 hc        1 MOL      0.076101
    144 H63         7.6930    5.4380   -3.4220 hc        1 MOL      0.046706
    145 H64         8.5570    4.8300   -1.8930 hc        1 MOL      0.046706
    146 H65         6.0160    3.7930   -3.2650 h1        1 MOL      0.034365
    147 H66         7.4760    3.0220   -2.9240 h1        1 MOL      0.034365
    148 N13         3.8640    4.2680    0.1840 n         1 MOL     -0.214618
    149 C50         2.4390    4.5560    0.6480 c3        1 MOL     -0.328097
    150 C51         2.4240    5.0110    2.0420 c         1 MOL      0.628923
    151 O21         1.4930    5.5440    2.4920 o         1 MOL     -0.543703
    152 C52         1.5430    3.3400    0.4780 c3        1 MOL     -0.009528
    153 C53         2.0500    2.0810    1.2160 c3        1 MOL     -0.273698
    154 C54         1.4130    0.8600    0.5960 c         1 MOL      0.800911
    155 O22         2.0580   -0.0980    0.0760 o         1 MOL     -0.768471
    156 O23         0.1470    0.7200    0.6730 o         1 MOL     -0.768471
    157 H67         4.0440    3.3710   -0.2480 hn        1 MOL      0.287590
    158 H68         2.0360    5.3440    0.0070 h1        1 MOL      0.167136
    159 H69         1.4890    3.1460   -0.5910 hc        1 MOL      0.082056
    160 H70         0.5090    3.4800    0.8030 hc        1 MOL      0.082056
    161 H71         1.7800    2.2120    2.2600 hc        1 MOL      0.092844
    162 H72         3.1260    1.9780    1.1080 hc        1 MOL      0.092844
    163 N14         3.4950    4.7890    2.8490 n         1 MOL     -0.146929
    164 C55         3.5450    5.0610    4.2480 c3        1 MOL     -0.283867
    165 H73         4.1770    4.3220    4.7390 h1        1 MOL      0.104291
    166 H74         3.9580    6.0570    4.4100 h1        1 MOL      0.104291
    167 H75         2.5390    5.0120    4.6650 h1        1 MOL      0.104291
    168 H76         4.2650    4.3410    2.3730 hn        1 MOL      0.173243
    169 Ca1        -0.2680   -1.4510   -0.6050 Ca        1 MOL      1.697614
    170 O24        -2.3780   -1.9040    1.2620 oh        1 MOL     -0.938445
    171 H77        -2.3900   -1.2190    1.9280 ho        1 MOL      0.446177
    172 H78        -3.1470   -1.7370    0.7200 ho        1 MOL      0.446177
    173 O25         0.6180   -0.0610   -2.7140 oh        1 MOL     -0.938445
    174 H79         1.4490    0.0340   -3.1710 ho        1 MOL      0.446177
    175 H80        -0.0130    0.3860   -3.2800 ho        1 MOL      0.446177
@<TRIPOS>BOND
     1    1    2 1   
     2    1    4 1   
     3    1    5 1   
     4    1    6 1   
     5    2    3 2   
     6    2    7 1   
     7    7    8 1   
     8    7   15 1   
     9    8    9 1   
    10    8   11 1   
    11    8   16 1   
    12    9   10 2   
    13    9   19 1   
    14   11   12 1   
    15   11   17 1   
    16   11   18 1   
    17   12   13 1   
    18   12   14 1   
    19   19   20 1   
    20   19   24 1   
    21   20   21 1   
    22   20   23 1   
    23   20   25 1   
    24   21   22 2   
    25   21   29 1   
    26   23   26 1   
    27   23   27 1   
    28   23   28 1   
    29   29   30 1   
    30   29   37 1   
    31   30   31 1   
    32   30   33 1   
    33   30   38 1   
    34   31   32 2   
    35   31   41 1   
    36   33   34 1   
    37   33   39 1   
    38   33   40 1   
    39   34   35 1   
    40   34   36 1   
    41   41   42 1   
    42   41   45 1   
    43   42   43 1   
    44   42   46 1   
    45   42   47 1   
    46   43   44 2   
    47   43   48 1   
    48   48   49 1   
    49   48   56 1   
    50   49   50 1   
    51   49   52 1   
    52   49   57 1   
    53   50   51 2   
    54   50   62 1   
    55   52   53 1   
    56   52   58 1   
    57   52   59 1   
    58   53   54 1   
    59   53   55 2   
    60   54   60 1   
    61   54   61 1   
    62   62   63 1   
    63   62   66 1   
    64   63   64 1   
    65   63   67 1   
    66   63   68 1   
    67   64   65 2   
    68   64   69 1   
    69   69   70 1   
    70   69   76 1   
    71   70   71 1   
    72   70   73 1   
    73   70   77 1   
    74   71   72 2   
    75   71   83 1   
    76   73   74 1   
    77   73   75 1   
    78   73   78 1   
    79   74   80 1   
    80   74   81 1   
    81   74   82 1   
    82   75   79 1   
    83   83   84 1   
    84   83   91 1   
    85   84   85 1   
    86   84   87 1   
    87   84   92 1   
    88   85   86 2   
    89   85  102 1   
    90   87   88 1   
    91   87   89 1   
    92   87   93 1   
    93   88   90 1   
    94   88   94 1   
    95   88   95 1   
    96   89   96 1   
    97   89   97 1   
    98   89   98 1   
    99   90   99 1   
   100   90  100 1   
   101   90  101 1   
   102  102  103 1   
   103  102  110 1   
   104  103  104 1   
   105  103  106 1   
   106  103  111 1   
   107  104  105 2   
   108  104  114 1   
   109  106  107 1   
   110  106  112 1   
   111  106  113 1   
   112  107  108 1   
   113  107  109 1   
   114  114  115 1   
   115  114  125 1   
   116  115  116 1   
   117  115  118 1   
   118  115  126 1   
   119  116  117 2   
   120  116  134 1   
   121  118  119 1   
   122  118  127 1   
   123  118  128 1   
   124  119  120 ar  
   125  119  121 ar  
   126  120  122 ar  
   127  120  129 1   
   128  121  123 ar  
   129  121  130 1   
   130  122  124 ar  
   131  122  131 1   
   132  123  124 ar  
   133  123  132 1   
   134  124  133 1   
   135  134  135 1   
   136  134  140 1   
   137  135  136 1   
   138  135  138 1   
   139  135  141 1   
   140  136  137 2   
   141  136  148 1   
   142  138  139 1   
   143  138  142 1   
   144  138  143 1   
   145  139  140 1   
   146  139  144 1   
   147  139  145 1   
   148  140  146 1   
   149  140  147 1   
   150  148  149 1   
   151  148  157 1   
   152  149  150 1   
   153  149  152 1   
   154  149  158 1   
   155  150  151 2   
   156  150  163 1   
   157  152  153 1   
   158  152  159 1   
   159  152  160 1   
   160  153  154 1   
   161  153  161 1   
   162  153  162 1   
   163  154  155 1   
   164  154  156 1   
   165  163  164 1   
   166  163  168 1   
   167  164  165 1   
   168  164  166 1   
   169  164  167 1   
   170  170  171 1   
   171  170  172 1   
   172  173  174 1   
   173  173  175 1   
@<TRIPOS>SUBSTRUCTURE
     1 MOL         1 TEMP              0 ****  ****    0 ROOT
