@<TRIPOS>MOLECULE
MOL
  181   177     1     0     0
SMALL
resp


@<TRIPOS>ATOM
      1 C1         -2.1510   -5.5580   -2.3780 c3        1 MOL     -0.313383
      2 C2         -3.5920   -5.7830   -1.8100 c         1 MOL      0.642114
      3 O1         -3.7920   -6.4820   -0.8520 o         1 MOL     -0.573280
      4 H1         -1.7050   -4.6860   -1.9010 hc        1 MOL      0.076769
      5 H2         -1.5380   -6.4370   -2.1730 hc        1 MOL      0.076769
      6 H3         -2.2050   -5.3950   -3.4540 hc        1 MOL      0.076769
      7 N1         -4.5870   -5.2040   -2.4580 n         1 MOL     -0.500903
      8 C3         -5.9870   -5.2300   -2.1020 c3        1 MOL      0.160201
      9 C4         -6.3420   -4.3950   -0.8980 c         1 MOL      0.513320
     10 O2         -7.1460   -3.4750   -0.9790 o         1 MOL     -0.468115
     11 C5         -6.8480   -5.1000   -3.3920 c3        1 MOL     -0.284107
     12 C6         -8.3380   -5.1360   -3.1650 c         1 MOL      0.788469
     13 O3         -9.0480   -4.1000   -3.2080 o         1 MOL     -0.756432
     14 O4         -8.8500   -6.2750   -3.0790 o         1 MOL     -0.756432
     15 H4         -4.3150   -4.5320   -3.1670 hn        1 MOL      0.282766
     16 H5         -6.1790   -6.2290   -1.7100 h1        1 MOL      0.048131
     17 H6         -6.5680   -5.9930   -3.9470 hc        1 MOL      0.026797
     18 H7         -6.4490   -4.3080   -4.0300 hc        1 MOL      0.026797
     19 N2         -5.6220   -4.6540    0.2010 n         1 MOL     -0.592879
     20 C7         -5.6890   -3.8730    1.4470 c3        1 MOL      0.458598
     21 C8         -4.2900   -3.8220    2.1270 c         1 MOL      0.354842
     22 O5         -3.5520   -4.7980    1.9920 o         1 MOL     -0.496571
     23 C9         -6.6620   -4.6780    2.2680 c3        1 MOL     -0.294277
     24 H8         -5.0520   -5.4840    0.1580 hn        1 MOL      0.315133
     25 H9         -5.9090   -2.8250    1.2770 h1        1 MOL     -0.058477
     26 H10        -6.2260   -5.6290    2.5450 hc        1 MOL      0.060387
     27 H11        -6.9420   -4.0640    3.1290 hc        1 MOL      0.060387
     28 H12        -7.6180   -4.7910    1.7530 hc        1 MOL      0.060387
     29 N3         -3.8610   -2.6740    2.6850 n         1 MOL     -0.361745
     30 C10        -4.6900   -1.5500    3.0850 c3        1 MOL     -0.006941
     31 C11        -4.7170   -0.5090    1.9510 c         1 MOL      0.674549
     32 O6         -3.8960   -0.5210    1.0120 o         1 MOL     -0.537678
     33 C12        -4.0880   -0.8480    4.3240 c3        1 MOL     -0.217763
     34 C13        -2.6520   -0.4470    4.0510 c         1 MOL      0.715398
     35 O7         -1.8530   -1.3650    3.8980 o         1 MOL     -0.709956
     36 O8         -2.2900    0.7700    4.0410 o         1 MOL     -0.709956
     37 H13        -2.9430   -2.6110    3.0950 hn        1 MOL      0.258795
     38 H14        -5.7090   -1.8950    3.2650 h1        1 MOL      0.056100
     39 H15        -4.1300   -1.4970    5.2080 hc        1 MOL      0.050016
     40 H16        -4.6960    0.0250    4.5760 hc        1 MOL      0.050016
     41 N4         -5.6950    0.4170    2.0810 n         1 MOL     -0.566203
     42 C14        -5.8070    1.6110    1.1830 c3        1 MOL     -0.068951
     43 C15        -6.7590    1.4290   -0.0850 c         1 MOL      0.681963
     44 O9         -7.3530    0.3430   -0.2330 o         1 MOL     -0.519441
     45 H17        -6.3790    0.2840    2.7950 hn        1 MOL      0.329539
     46 H18        -4.8130    1.9790    0.9480 h1        1 MOL      0.111980
     47 H19        -6.2790    2.3540    1.8190 h1        1 MOL      0.111980
     48 N5         -7.0460    2.4340   -0.9180 n         1 MOL     -0.671376
     49 C16        -6.5370    3.7790   -0.8160 c3        1 MOL      0.106001
     50 C17        -5.7550    4.3240   -1.9610 c         1 MOL      0.651599
     51 O10        -6.1360    4.0770   -3.1150 o         1 MOL     -0.543630
     52 C18        -7.6780    4.7020   -0.3400 c3        1 MOL     -0.226484
     53 C19        -8.4320    4.3100    0.9120 c         1 MOL      0.667342
     54 N6         -9.4410    3.5400    0.7150 n         1 MOL     -0.765049
     55 O11        -8.1320    4.7090    2.0180 o         1 MOL     -0.568136
     56 H20        -7.6680    2.2180   -1.6850 hn        1 MOL      0.363367
     57 H21        -5.9000    3.7800    0.0750 h1        1 MOL     -0.004611
     58 H22        -8.3900    4.7870   -1.1520 hc        1 MOL      0.053153
     59 H23        -7.2720    5.7210   -0.3430 hc        1 MOL      0.053153
     60 H24        -9.6360    3.2950   -0.2470 hn        1 MOL      0.375543
     61 H25       -10.0620    3.3460    1.4870 hn        1 MOL      0.375543
     62 N7         -4.7230    5.1130   -1.7860 n         1 MOL     -0.460028
     63 C20        -3.8530    5.5520   -2.9610 c3        1 MOL     -0.081895
     64 C21        -2.4450    5.9210   -2.7010 c         1 MOL      0.578067
     65 O12        -1.9820    6.8600   -3.3900 o         1 MOL     -0.574311
     66 H26        -4.4340    5.2920   -0.8320 hn        1 MOL      0.296082
     67 H27        -4.4260    6.2730   -3.5440 h1        1 MOL      0.100966
     68 H28        -3.7290    4.7220   -3.6590 h1        1 MOL      0.100966
     69 N8         -1.7570    5.3160   -1.7480 n         1 MOL     -0.347554
     70 C22        -0.3210    5.6380   -1.3700 c3        1 MOL     -0.061571
     71 C23         0.5220    4.4020   -1.1280 c         1 MOL      0.419019
     72 O13         0.0770    3.3020   -0.7690 o         1 MOL     -0.521898
     73 C24        -0.2230    6.5680   -0.1190 c3        1 MOL      0.434417
     74 C25        -0.7680    8.0430   -0.3920 c3        1 MOL     -0.557534
     75 O14        -0.9310    6.1200    0.9520 oh        1 MOL     -0.599682
     76 H29        -2.2980    4.7180   -1.1460 hn        1 MOL      0.231353
     77 H30         0.1460    6.1990   -2.1950 h1        1 MOL      0.097548
     78 H31         0.7970    6.5450    0.2750 h1        1 MOL     -0.018202
     79 H32        -0.3970    5.4360    1.3680 ho        1 MOL      0.395764
     80 H33        -1.8400    8.0970   -0.1790 hc        1 MOL      0.152940
     81 H34        -0.2120    8.6270    0.3370 hc        1 MOL      0.152940
     82 H35        -0.4770    8.3580   -1.3860 hc        1 MOL      0.152940
     83 N9          1.8500    4.5830   -1.1920 n         1 MOL     -0.275496
     84 C26         2.9000    3.5770   -1.0950 c3        1 MOL     -0.058228
     85 C27         3.6110    3.6250    0.2660 c         1 MOL      0.373223
     86 O15         4.1420    4.7000    0.5520 o         1 MOL     -0.556832
     87 C28         3.8590    3.6670   -2.2540 c3        1 MOL      0.077697
     88 C29         5.0980    2.6450   -2.0440 c3        1 MOL      0.067868
     89 C30         3.0900    3.5060   -3.5780 c3        1 MOL     -0.275698
     90 C31         6.0260    2.4050   -3.2140 c3        1 MOL     -0.183077
     91 H36         2.1850    5.4940   -1.5040 hn        1 MOL      0.209819
     92 H37         2.4220    2.5970   -1.1070 h1        1 MOL      0.231205
     93 H38         4.3000    4.6660   -2.1750 hc        1 MOL      0.018539
     94 H39         4.7200    1.6900   -1.6800 hc        1 MOL     -0.001918
     95 H40         5.7020    2.8410   -1.1690 hc        1 MOL     -0.001918
     96 H41         2.4090    4.3370   -3.7330 hc        1 MOL      0.070074
     97 H42         3.7600    3.5020   -4.4340 hc        1 MOL      0.070074
     98 H43         2.4880    2.6050   -3.6150 hc        1 MOL      0.070074
     99 H44         5.4880    1.7820   -3.9320 hc        1 MOL      0.034484
    100 H45         6.3650    3.3340   -3.6750 hc        1 MOL      0.034484
    101 H46         6.9540    1.9300   -2.9070 hc        1 MOL      0.034484
    102 N10         3.8750    2.5250    0.9420 n         1 MOL     -0.098527
    103 C32         4.7860    2.4810    2.0530 c3        1 MOL      0.043670
    104 C33         5.9000    1.3910    2.0650 c         1 MOL      0.373414
    105 O16         6.8320    1.3310    2.8830 o         1 MOL     -0.521968
    106 C34         4.0170    2.3860    3.4110 c3        1 MOL     -0.070163
    107 C35         2.7770    1.4740    3.4120 c         1 MOL      0.700540
    108 O17         1.6210    1.9710    3.4620 o         1 MOL     -0.742913
    109 O18         2.9990    0.2320    3.3160 o         1 MOL     -0.742913
    110 H47         3.4870    1.6460    0.6270 hn        1 MOL      0.039224
    111 H48         5.2620    3.4610    2.0370 h1        1 MOL      0.078876
    112 H49         3.5530    3.3650    3.5620 hc        1 MOL      0.015213
    113 H50         4.7180    2.3560    4.2390 hc        1 MOL      0.015213
    114 N11         5.8150    0.5340    0.9990 n         1 MOL     -0.414135
    115 C36         6.8650   -0.4350    0.6710 c3        1 MOL      0.433756
    116 C37         6.2240   -1.7220    0.1110 c         1 MOL      0.134792
    117 O19         6.5200   -1.9670   -1.0490 o         1 MOL     -0.396771
    118 C38         7.9440    0.2190   -0.2170 c3        1 MOL     -0.340442
    119 C39         9.2640   -0.5480   -0.2410 ca        1 MOL      0.142906
    120 C40         9.8400   -0.9600    0.9710 ca        1 MOL     -0.170162
    121 C41         9.8250   -0.9120   -1.5010 ca        1 MOL     -0.170162
    122 C42        11.1090   -1.5870    0.9460 ca        1 MOL     -0.132010
    123 C43        11.0620   -1.6200   -1.5610 ca        1 MOL     -0.132010
    124 C44        11.6800   -1.9530   -0.3360 ca        1 MOL     -0.137775
    125 H51         5.0000    0.6860    0.4220 hn        1 MOL      0.287794
    126 H52         7.3670   -0.7190    1.6010 h1        1 MOL      0.007622
    127 H53         8.2280    1.1960    0.1710 hc        1 MOL      0.117492
    128 H54         7.6250    0.3710   -1.2480 hc        1 MOL      0.117492
    129 H55         9.3970   -0.8080    1.9490 ha        1 MOL      0.132111
    130 H56         9.2690   -0.7000   -2.4000 ha        1 MOL      0.132111
    131 H57        11.6270   -1.9150    1.8390 ha        1 MOL      0.113129
    132 H58        11.5220   -1.8590   -2.5130 ha        1 MOL      0.113129
    133 H59        12.5830   -2.5450   -0.3830 ha        1 MOL      0.098153
    134 N12         5.3430   -2.4860    0.7630 n         1 MOL     -0.098161
    135 C45         4.6290   -3.7110    0.3450 c3        1 MOL     -0.008306
    136 C46         3.7980   -3.7000   -0.9420 c         1 MOL      0.301558
    137 O20         3.5400   -4.8180   -1.3770 o         1 MOL     -0.499260
    138 C47         3.7740   -4.0290    1.5560 c3        1 MOL      0.113863
    139 C48         4.5060   -3.5590    2.7110 c3        1 MOL     -0.369274
    140 C49         5.0160   -2.2410    2.1170 c3        1 MOL      0.101079
    141 H60         5.2990   -4.5730    0.2660 h1        1 MOL      0.079299
    142 H61         2.8070   -3.5350    1.4650 hc        1 MOL      0.023974
    143 H62         3.6900   -5.1200    1.4780 hc        1 MOL      0.023974
    144 H63         3.8170   -3.4150    3.5360 hc        1 MOL      0.097778
    145 H64         5.3680   -4.1980    2.9200 hc        1 MOL      0.097778
    146 H65         4.2030   -1.5140    2.1050 h1        1 MOL      0.062804
    147 H66         5.8860   -1.8740    2.6710 h1        1 MOL      0.062804
    148 N13         3.3900   -2.5350   -1.3800 n         1 MOL     -0.155783
    149 C50         2.9220   -2.2920   -2.7530 c3        1 MOL     -0.087099
    150 C51         3.9370   -2.7150   -3.8200 c         1 MOL      0.482198
    151 O21         3.6070   -3.1910   -4.8970 o         1 MOL     -0.551125
    152 C52         2.5890   -0.8380   -2.9280 c3        1 MOL     -0.082290
    153 C53         1.6130   -0.1400   -1.9370 c3        1 MOL      0.021319
    154 C54         2.0180   -0.0580   -0.5110 c         1 MOL      0.443444
    155 O22         1.0850   -0.1460    0.3840 o         1 MOL     -0.647919
    156 O23         3.2390    0.0560   -0.3070 o         1 MOL     -0.647919
    157 H67         3.7080   -1.7190   -0.8840 hn        1 MOL      0.323359
    158 H68         2.0030   -2.8270   -3.0020 h1        1 MOL      0.096333
    159 H69         2.3530   -0.7020   -3.9870 hc        1 MOL      0.031530
    160 H70         3.5410   -0.3270   -2.8380 hc        1 MOL      0.031530
    161 H71         0.6020   -0.5560   -1.9500 hc        1 MOL      0.014435
    162 H72         1.4620    0.8710   -2.3120 hc        1 MOL      0.014435
    163 N14         5.2450   -2.5850   -3.5070 n         1 MOL     -0.098698
    164 C55         6.2870   -3.0610   -4.3570 c3        1 MOL     -0.197279
    165 H73         6.7740   -3.9170   -3.8900 h1        1 MOL      0.078375
    166 H74         5.8650   -3.3630   -5.3160 h1        1 MOL      0.078375
    167 H75         7.0180   -2.2690   -4.5140 h1        1 MOL      0.078375
    168 H76         5.4850   -2.2250   -2.5890 hn        1 MOL      0.076740
    169 Ca1         0.2730   -0.3110    2.7510 Ca        1 MOL      1.740527
    170 O24         0.6460   -0.7750    5.3950 oh        1 MOL     -0.795556
    171 H77         1.0590   -1.5280    5.8190 ho        1 MOL      0.393960
    172 H78        -0.0600   -0.5260    5.9900 ho        1 MOL      0.393960
    173 O25        -0.7380    1.8540    1.4670 oh        1 MOL     -0.795556
    174 O26        -1.2920   -1.1470    0.7420 oh        1 MOL     -0.795556
    175 H79        -0.5520    2.0200    0.5420 ho        1 MOL      0.393960
    176 H80        -2.2500   -1.0510    0.8060 ho        1 MOL      0.393960
    177 H81        -0.3570    2.5990    1.9360 ho        1 MOL      0.393960
    178 H82        -1.1350   -1.4120   -0.1610 ho        1 MOL      0.393960
    179 O27         0.7810   -2.8980    3.1690 oh        1 MOL     -0.795556
    180 H83         1.3030   -3.0270    3.9580 ho        1 MOL      0.393960
    181 H84         0.2030   -3.6570    3.1250 ho        1 MOL      0.393960
@<TRIPOS>BOND
     1    1    2 1   
     2    1    4 1   
     3    1    5 1   
     4    1    6 1   
     5    2    3 2   
     6    2    7 1   
     7    7    8 1   
     8    7   15 1   
     9    8    9 1   
    10    8   11 1   
    11    8   16 1   
    12    9   10 2   
    13    9   19 1   
    14   11   12 1   
    15   11   17 1   
    16   11   18 1   
    17   12   13 1   
    18   12   14 1   
    19   19   20 1   
    20   19   24 1   
    21   20   21 1   
    22   20   23 1   
    23   20   25 1   
    24   21   22 2   
    25   21   29 1   
    26   23   26 1   
    27   23   27 1   
    28   23   28 1   
    29   29   30 1   
    30   29   37 1   
    31   30   31 1   
    32   30   33 1   
    33   30   38 1   
    34   31   32 2   
    35   31   41 1   
    36   33   34 1   
    37   33   39 1   
    38   33   40 1   
    39   34   35 1   
    40   34   36 1   
    41   41   42 1   
    42   41   45 1   
    43   42   43 1   
    44   42   46 1   
    45   42   47 1   
    46   43   44 2   
    47   43   48 1   
    48   48   49 1   
    49   48   56 1   
    50   49   50 1   
    51   49   52 1   
    52   49   57 1   
    53   50   51 2   
    54   50   62 1   
    55   52   53 1   
    56   52   58 1   
    57   52   59 1   
    58   53   54 1   
    59   53   55 2   
    60   54   60 1   
    61   54   61 1   
    62   62   63 1   
    63   62   66 1   
    64   63   64 1   
    65   63   67 1   
    66   63   68 1   
    67   64   65 2   
    68   64   69 1   
    69   69   70 1   
    70   69   76 1   
    71   70   71 1   
    72   70   73 1   
    73   70   77 1   
    74   71   72 2   
    75   71   83 1   
    76   73   74 1   
    77   73   75 1   
    78   73   78 1   
    79   74   80 1   
    80   74   81 1   
    81   74   82 1   
    82   75   79 1   
    83   83   84 1   
    84   83   91 1   
    85   84   85 1   
    86   84   87 1   
    87   84   92 1   
    88   85   86 2   
    89   85  102 1   
    90   87   88 1   
    91   87   89 1   
    92   87   93 1   
    93   88   90 1   
    94   88   94 1   
    95   88   95 1   
    96   89   96 1   
    97   89   97 1   
    98   89   98 1   
    99   90   99 1   
   100   90  100 1   
   101   90  101 1   
   102  102  103 1   
   103  102  110 1   
   104  103  104 1   
   105  103  106 1   
   106  103  111 1   
   107  104  105 2   
   108  104  114 1   
   109  106  107 1   
   110  106  112 1   
   111  106  113 1   
   112  107  108 1   
   113  107  109 1   
   114  114  115 1   
   115  114  125 1   
   116  115  116 1   
   117  115  118 1   
   118  115  126 1   
   119  116  117 2   
   120  116  134 1   
   121  118  119 1   
   122  118  127 1   
   123  118  128 1   
   124  119  120 ar  
   125  119  121 ar  
   126  120  122 ar  
   127  120  129 1   
   128  121  123 ar  
   129  121  130 1   
   130  122  124 ar  
   131  122  131 1   
   132  123  124 ar  
   133  123  132 1   
   134  124  133 1   
   135  134  135 1   
   136  134  140 1   
   137  135  136 1   
   138  135  138 1   
   139  135  141 1   
   140  136  137 2   
   141  136  148 1   
   142  138  139 1   
   143  138  142 1   
   144  138  143 1   
   145  139  140 1   
   146  139  144 1   
   147  139  145 1   
   148  140  146 1   
   149  140  147 1   
   150  148  149 1   
   151  148  157 1   
   152  149  150 1   
   153  149  152 1   
   154  149  158 1   
   155  150  151 2   
   156  150  163 1   
   157  152  153 1   
   158  152  159 1   
   159  152  160 1   
   160  153  154 1   
   161  153  161 1   
   162  153  162 1   
   163  154  155 1   
   164  154  156 1   
   165  163  164 1   
   166  163  168 1   
   167  164  165 1   
   168  164  166 1   
   169  164  167 1   
   170  170  171 1   
   171  170  172 1   
   172  173  175 1   
   173  173  177 1   
   174  174  176 1   
   175  174  178 1   
   176  179  180 1   
   177  179  181 1   
@<TRIPOS>SUBSTRUCTURE
     1 MOL         1 TEMP              0 ****  ****    0 ROOT
