@<TRIPOS>MOLECULE
MOL
  201   193     1     0     0
SMALL
resp


@<TRIPOS>ATOM
      1 C1          2.9800   -2.3160   -2.5600 c3        1 MOL     -0.474779
      2 C2          2.1010   -3.1350   -1.5830 c         1 MOL      0.613314
      3 O1          1.0140   -2.7010   -1.1510 o         1 MOL     -0.534586
      4 H1          3.9490   -2.8030   -2.6710 hc        1 MOL      0.116829
      5 H2          2.4890   -2.2600   -3.5310 hc        1 MOL      0.116829
      6 H3          3.1230   -1.3100   -2.1650 hc        1 MOL      0.116829
      7 N1          2.5500   -4.3030   -1.1350 n         1 MOL     -0.563269
      8 C3          1.9720   -5.1000   -0.0600 c3        1 MOL      0.309124
      9 C4          0.5380   -5.5580   -0.2670 c         1 MOL      0.579233
     10 O2         -0.0520   -6.1890    0.5850 o         1 MOL     -0.484015
     11 C5          2.1670   -4.4290    1.2870 c3        1 MOL     -0.170522
     12 C6          2.3310   -5.4480    2.4350 c         1 MOL      0.649858
     13 O3          1.7960   -5.2470    3.5210 o         1 MOL     -0.634243
     14 O4          2.9690   -6.5150    2.2170 o         1 MOL     -0.634243
     15 H4          3.4750   -4.6500   -1.3680 hn        1 MOL      0.315763
     16 H5          2.5820   -5.9960    0.0420 h1        1 MOL     -0.055106
     17 H6          1.4280   -3.6680    1.5670 hc        1 MOL      0.029403
     18 H7          3.0250   -3.7480    1.2250 hc        1 MOL      0.029403
     19 N2         -0.0700   -5.2100   -1.4310 n         1 MOL     -0.691719
     20 C7         -1.4570   -5.2820   -1.7640 c3        1 MOL     -0.010634
     21 C8         -2.0630   -6.6270   -1.3870 c         1 MOL      0.795866
     22 O5         -1.4710   -7.6530   -1.6180 o         1 MOL     -0.576579
     23 C9         -1.7350   -5.0200   -3.3130 c3        1 MOL      0.183016
     24 C10        -1.1390   -6.1060   -4.3180 c3        1 MOL      0.111488
     25 C11        -1.2620   -3.6380   -3.7820 c3        1 MOL     -0.304185
     26 C12        -1.9230   -6.1600   -5.6540 c3        1 MOL     -0.123930
     27 H8          0.4910   -4.5960   -2.0020 hn        1 MOL      0.238264
     28 H9         -1.8880   -4.4600   -1.1920 h1        1 MOL      0.192695
     29 H10        -2.8260   -5.0950   -3.3800 hc        1 MOL      0.010913
     30 H11        -1.1390   -7.1200   -3.9430 hc        1 MOL     -0.020852
     31 H12        -0.1100   -5.9100   -4.6200 hc        1 MOL     -0.020852
     32 H13        -1.7480   -3.1440   -4.6190 hc        1 MOL      0.076800
     33 H14        -1.6470   -3.0790   -2.9360 hc        1 MOL      0.076800
     34 H15        -0.1820   -3.6990   -3.9310 hc        1 MOL      0.076800
     35 H16        -1.9730   -5.1460   -6.0650 hc        1 MOL      0.005514
     36 H17        -1.3630   -6.6750   -6.4280 hc        1 MOL      0.005514
     37 H18        -2.9310   -6.5160   -5.4670 hc        1 MOL      0.005514
     38 N3         -3.2330   -6.6810   -0.7220 n         1 MOL     -0.820170
     39 C13        -4.3490   -5.7610   -0.9360 c3        1 MOL      0.192527
     40 C14        -5.2900   -5.7750    0.2880 c         1 MOL      0.669716
     41 O6         -6.4290   -6.2460    0.1870 o         1 MOL     -0.514296
     42 C15        -5.0720   -6.0750   -2.2730 c3        1 MOL     -0.159968
     43 C16        -5.9830   -4.9360   -2.7400 c         1 MOL      0.644239
     44 O7         -6.8730   -5.1190   -3.5840 o         1 MOL     -0.607145
     45 O8         -6.0750   -3.8780   -2.0830 o         1 MOL     -0.607145
     46 H19        -3.4660   -7.6170   -0.4120 hn        1 MOL      0.368754
     47 H20        -4.0040   -4.7400   -1.0750 h1        1 MOL     -0.067649
     48 H21        -5.6260   -7.0030   -2.1250 hc        1 MOL      0.032467
     49 H22        -4.3490   -6.2860   -3.0550 hc        1 MOL      0.032467
     50 N4         -4.8760   -5.3930    1.5110 n         1 MOL     -0.539996
     51 C17        -5.7420   -5.2250    2.7050 c3        1 MOL      0.062425
     52 C18        -6.6540   -3.9740    2.8070 c         1 MOL      0.403584
     53 O9         -7.8470   -4.2340    2.5750 o         1 MOL     -0.489601
     54 H23        -4.0740   -4.7960    1.3560 hn        1 MOL      0.303124
     55 H24        -5.1010   -5.2090    3.5920 h1        1 MOL      0.048819
     56 H25        -6.4110   -6.0830    2.7380 h1        1 MOL      0.048819
     57 N5         -6.2070   -2.7710    3.2210 n         1 MOL     -0.354408
     58 C19        -7.0530   -1.6830    3.4830 c3        1 MOL      0.029979
     59 C20        -8.0510   -1.2410    2.4100 c         1 MOL      0.393310
     60 O10        -9.1730   -0.9060    2.8200 o         1 MOL     -0.568023
     61 C21        -6.1890   -0.4820    3.8300 c3        1 MOL     -0.174616
     62 C22        -5.1200   -0.2740    2.7820 c         1 MOL      0.720900
     63 O11        -3.9930   -0.8080    2.8300 o         1 MOL     -0.677207
     64 O12        -5.3460    0.4370    1.7920 o         1 MOL     -0.677207
     65 H26        -5.2210   -2.7110    3.4010 hn        1 MOL      0.258872
     66 H27        -7.6900   -2.0120    4.3010 h1        1 MOL      0.067671
     67 H28        -5.6060   -0.7660    4.7000 hc        1 MOL      0.022082
     68 H29        -6.8490    0.3820    3.9670 hc        1 MOL      0.022082
     69 N6         -7.6490   -1.0390    1.1480 n         1 MOL     -0.058336
     70 C23        -8.4730   -0.4690    0.1310 c3        1 MOL     -0.313219
     71 C24        -8.5050    1.0950    0.2050 c         1 MOL      0.512265
     72 O13        -9.2310    1.7450   -0.5930 o         1 MOL     -0.609852
     73 H30        -6.6760   -1.2070    0.9390 hn        1 MOL      0.216302
     74 H31        -9.4700   -0.8120    0.4190 h1        1 MOL      0.145108
     75 H32        -8.1940   -0.9220   -0.8290 h1        1 MOL      0.145108
     76 N7         -7.6910    1.7450    1.0140 n         1 MOL     -0.074307
     77 C25        -7.4270    3.1860    1.2160 c3        1 MOL      0.035166
     78 C26        -7.2490    4.1100   -0.0290 c         1 MOL      0.587578
     79 O14        -7.6670    5.2560   -0.0410 o         1 MOL     -0.530442
     80 C27        -8.2950    3.8420    2.3240 c3        1 MOL     -0.045858
     81 C28        -8.4400    2.8780    3.5870 c3        1 MOL      0.039519
     82 C29        -8.9020    3.6360    4.8270 c         1 MOL      0.603749
     83 N8         -9.4550    2.9310    5.7790 n         1 MOL     -0.789250
     84 O15        -8.6650    4.8300    5.0560 o         1 MOL     -0.562393
     85 H33        -7.0260    1.2070    1.5410 hn        1 MOL      0.093621
     86 H34        -6.4390    3.0530    1.6600 h1        1 MOL      0.066786
     87 H35        -9.3100    4.0970    2.0260 hc        1 MOL      0.004924
     88 H36        -7.7540    4.6770    2.7690 hc        1 MOL      0.004924
     89 H37        -7.4950    2.3470    3.6960 hc        1 MOL     -0.004035
     90 H38        -9.1110    2.0700    3.2880 hc        1 MOL     -0.004035
     91 H39        -9.7140    1.9640    5.6730 hn        1 MOL      0.349312
     92 H40        -9.5500    3.3550    6.6930 hn        1 MOL      0.349312
     93 N9         -6.4880    3.7340   -1.1030 n         1 MOL     -0.477839
     94 C30        -6.2290    4.5030   -2.2580 c3        1 MOL     -0.190103
     95 C31        -4.8080    4.4080   -2.8170 c         1 MOL      0.727505
     96 O16        -4.4420    5.1120   -3.7260 o         1 MOL     -0.596918
     97 C32        -7.1380    4.0740   -3.3690 c3        1 MOL      0.295035
     98 C33        -6.8310    2.6290   -3.8070 c3        1 MOL     -0.230580
     99 C34        -8.6900    4.4330   -3.1840 c3        1 MOL     -0.230580
    100 H41        -6.1940    2.7670   -1.1590 hn        1 MOL      0.241395
    101 H42        -6.4210    5.5380   -1.9700 h1        1 MOL      0.134521
    102 H43        -6.9240    4.6880   -4.2520 hc        1 MOL     -0.063050
    103 H44        -5.8640    2.5550   -4.3020 hc        1 MOL      0.052133
    104 H45        -6.9890    1.9230   -2.9890 hc        1 MOL      0.052133
    105 H46        -7.5780    2.3190   -4.5340 hc        1 MOL      0.052133
    106 H47        -9.3620    4.1050   -3.9760 hc        1 MOL      0.052133
    107 H48        -9.0760    4.0080   -2.2480 hc        1 MOL      0.052133
    108 H49        -8.8390    5.5020   -3.0900 hc        1 MOL      0.052133
    109 N10        -3.9490    3.6600   -2.1200 n         1 MOL     -0.577728
    110 C35        -2.5510    3.5390   -2.5150 c3        1 MOL      0.370762
    111 C36        -1.5740    3.4100   -1.2400 c         1 MOL      0.468573
    112 O17        -2.1180    3.3270   -0.1370 o         1 MOL     -0.537071
    113 C37        -2.4950    2.4070   -3.5430 c3        1 MOL     -0.372536
    114 C38        -1.0930    1.9640   -3.8540 c         1 MOL      0.658403
    115 N11        -0.8330    0.7280   -3.6300 n         1 MOL     -0.776758
    116 O18        -0.2030    2.7910   -4.0950 o         1 MOL     -0.594261
    117 H50        -4.1980    2.9440   -1.4620 hn        1 MOL      0.296196
    118 H51        -2.2030    4.4840   -2.9290 h1        1 MOL      0.011375
    119 H52        -2.8910    2.8030   -4.4770 hc        1 MOL      0.104340
    120 H53        -3.1850    1.6000   -3.2880 hc        1 MOL      0.104340
    121 H54        -1.5740    0.0620   -3.4610 hn        1 MOL      0.371068
    122 H55         0.0820    0.3730   -3.8690 hn        1 MOL      0.371068
    123 N12        -0.2690    3.4580   -1.3590 n         1 MOL     -0.492294
    124 C39         0.7320    3.2810   -0.2970 c3        1 MOL      0.221680
    125 C40         2.0630    3.9530   -0.6460 c         1 MOL      0.269428
    126 O19         2.5580    3.7940   -1.8130 o         1 MOL     -0.496306
    127 C41         0.9210    1.7810   -0.0180 c3        1 MOL     -0.054967
    128 C42         1.9780    1.4230    1.0390 ca        1 MOL      0.033821
    129 C43         3.0220    0.5350    0.7560 ca        1 MOL     -0.095813
    130 C44         1.9250    2.0240    2.3010 ca        1 MOL     -0.095813
    131 C45         4.0710    0.3130    1.6270 ca        1 MOL     -0.335222
    132 C46         3.0060    1.8410    3.2190 ca        1 MOL     -0.335222
    133 C47         4.0630    0.9380    2.9340 ca        1 MOL      0.400877
    134 O20         5.0260    0.6810    3.7770 oh        1 MOL     -0.612296
    135 H56         0.0100    3.5670   -2.3240 hn        1 MOL      0.293739
    136 H57         0.3740    3.6600    0.6610 h1        1 MOL      0.031109
    137 H58         1.3230    1.2540   -0.8870 hc        1 MOL      0.072766
    138 H59         0.0340    1.2240    0.2760 hc        1 MOL      0.072766
    139 H60         3.1510    0.1380   -0.2400 ha        1 MOL      0.122765
    140 H61         1.1360    2.7360    2.4800 ha        1 MOL      0.122765
    141 H62         4.8410   -0.3930    1.3680 ha        1 MOL      0.179119
    142 H63         3.0130    2.3700    4.1530 ha        1 MOL      0.179119
    143 H64         5.6630    0.0150    3.5120 ho        1 MOL      0.515754
    144 N13         2.6380    4.5660    0.3480 n         1 MOL     -0.164354
    145 C48         4.0230    5.0810    0.2590 c3        1 MOL      0.077055
    146 C49         4.8780    4.3840    1.3240 c         1 MOL      0.481064
    147 O21         4.8190    4.7960    2.5080 o         1 MOL     -0.550772
    148 C50         3.9590    6.5910    0.4300 c3        1 MOL     -0.072565
    149 C51         3.2170    7.3670   -0.6460 c3        1 MOL     -0.200190
    150 C52         3.2950    8.9140   -0.3690 c         1 MOL      0.708379
    151 O22         2.6810    9.3350    0.6680 o         1 MOL     -0.652226
    152 O23         3.7540    9.7450   -1.1530 o         1 MOL     -0.652226
    153 H65         2.1580    4.6630    1.2320 hn        1 MOL      0.239895
    154 H66         4.3990    4.8880   -0.7430 h1        1 MOL      0.109415
    155 H67         4.9970    6.9290    0.5160 hc        1 MOL      0.031055
    156 H68         3.5230    6.8150    1.4030 hc        1 MOL      0.031055
    157 H69         2.1940    7.0760   -0.4240 hc        1 MOL      0.040485
    158 H70         3.4610    7.1370   -1.6820 hc        1 MOL      0.040485
    159 N14         5.7380    3.3720    1.1170 n         1 MOL     -0.351491
    160 C53         5.9500    2.6910   -0.1940 c3        1 MOL     -0.288040
    161 C54         6.3650    3.5220   -1.3390 c         1 MOL      0.686019
    162 O24         7.2390    4.3360   -1.2390 o         1 MOL     -0.544331
    163 C55         6.9400    1.5230   -0.0270 c3        1 MOL      0.272483
    164 C56         8.3760    1.9540    0.4430 c3        1 MOL     -0.485208
    165 C57         9.2890    0.7850    0.6040 c         1 MOL      0.744891
    166 O25         9.1540   -0.2210   -0.2120 o         1 MOL     -0.667821
    167 O26        10.2190    0.7910    1.3950 o         1 MOL     -0.667821
    168 H71         6.2200    2.9740    1.9250 hn        1 MOL      0.290782
    169 H72         4.9730    2.2780   -0.4470 h1        1 MOL      0.016638
    170 H73         7.0500    0.9650   -0.9630 hc        1 MOL     -0.059484
    171 H74         6.5690    0.8570    0.7480 hc        1 MOL     -0.059484
    172 H75         8.3370    2.4080    1.4290 hc        1 MOL      0.117663
    173 H76         8.8640    2.6740   -0.2100 hc        1 MOL      0.117663
    174 N15         5.7710    3.3560   -2.5560 n         1 MOL     -0.319781
    175 C58         5.8600    4.1790   -3.7610 c3        1 MOL     -0.261035
    176 H77         5.7050    5.2260   -3.4970 h1        1 MOL      0.112028
    177 H78         6.8460    4.0610   -4.2090 h1        1 MOL      0.112028
    178 H79         5.0970    3.8660   -4.4720 h1        1 MOL      0.112028
    179 H80         5.1490    2.5610   -2.5720 hn        1 MOL      0.258537
    180 Ca1        11.0250   -1.8620    0.8370 Ca        1 MOL      1.699746
    181 O27         9.6440   -3.0800   -0.9240 oh        1 MOL     -0.783300
    182 H81         9.7850   -3.5110   -1.7660 ho        1 MOL      0.341443
    183 H82         8.8230   -2.5980   -1.0320 ho        1 MOL      0.341443
    184 O28        11.3230   -1.9350    3.7810 oh        1 MOL     -0.783300
    185 H83        11.0490   -1.0160    3.8180 ho        1 MOL      0.341443
    186 H84        11.0230   -2.3080    4.6120 ho        1 MOL      0.341443
    187 O29         8.7960   -2.4000    2.1720 oh        1 MOL     -0.783300
    188 H85         8.6760   -3.3000    2.4790 ho        1 MOL      0.341443
    189 H86         7.9980   -1.9520    2.4380 ho        1 MOL      0.341443
    190 O30        11.0610   -4.4780    1.6060 oh        1 MOL     -0.783300
    191 H87        10.8230   -5.1660    2.2220 ho        1 MOL      0.341443
    192 H88        11.7390   -4.8670    1.0570 ho        1 MOL      0.341443
    193 O31        13.4610   -0.7460    1.4000 oh        1 MOL     -0.783300
    194 H89        14.3250   -0.7320    0.9870 ho        1 MOL      0.341443
    195 H90        13.4280    0.0540    1.9180 ho        1 MOL      0.341443
    196 O32        12.2020   -0.4750   -1.2580 oh        1 MOL     -0.783300
    197 H91        12.2430   -0.5470   -2.2140 ho        1 MOL      0.341443
    198 H92        13.0090   -0.0280   -1.0080 ho        1 MOL      0.341443
    199 O33        13.0420   -3.4060   -0.3000 oh        1 MOL     -0.783300
    200 H93        13.4670   -3.0330   -1.0670 ho        1 MOL      0.341443
    201 H94        12.9820   -4.3440   -0.4890 ho        1 MOL      0.341443
@<TRIPOS>BOND
     1    1    2 1   
     2    1    4 1   
     3    1    5 1   
     4    1    6 1   
     5    2    3 2   
     6    2    7 1   
     7    7    8 1   
     8    7   15 1   
     9    8    9 1   
    10    8   11 1   
    11    8   16 1   
    12    9   10 2   
    13    9   19 1   
    14   11   12 1   
    15   11   17 1   
    16   11   18 1   
    17   12   13 1   
    18   12   14 1   
    19   19   20 1   
    20   19   27 1   
    21   20   21 1   
    22   20   23 1   
    23   20   28 1   
    24   21   22 2   
    25   21   38 1   
    26   23   24 1   
    27   23   25 1   
    28   23   29 1   
    29   24   26 1   
    30   24   30 1   
    31   24   31 1   
    32   25   32 1   
    33   25   33 1   
    34   25   34 1   
    35   26   35 1   
    36   26   36 1   
    37   26   37 1   
    38   38   39 1   
    39   38   46 1   
    40   39   40 1   
    41   39   42 1   
    42   39   47 1   
    43   40   41 2   
    44   40   50 1   
    45   42   43 1   
    46   42   48 1   
    47   42   49 1   
    48   43   44 1   
    49   43   45 1   
    50   50   51 1   
    51   50   54 1   
    52   51   52 1   
    53   51   55 1   
    54   51   56 1   
    55   52   53 2   
    56   52   57 1   
    57   57   58 1   
    58   57   65 1   
    59   58   59 1   
    60   58   61 1   
    61   58   66 1   
    62   59   60 2   
    63   59   69 1   
    64   61   62 1   
    65   61   67 1   
    66   61   68 1   
    67   62   63 1   
    68   62   64 1   
    69   69   70 1   
    70   69   73 1   
    71   70   71 1   
    72   70   74 1   
    73   70   75 1   
    74   71   72 2   
    75   71   76 1   
    76   76   77 1   
    77   76   85 1   
    78   77   78 1   
    79   77   80 1   
    80   77   86 1   
    81   78   79 2   
    82   78   93 1   
    83   80   81 1   
    84   80   87 1   
    85   80   88 1   
    86   81   82 1   
    87   81   89 1   
    88   81   90 1   
    89   82   83 1   
    90   82   84 2   
    91   83   91 1   
    92   83   92 1   
    93   93   94 1   
    94   93  100 1   
    95   94   95 1   
    96   94   97 1   
    97   94  101 1   
    98   95   96 2   
    99   95  109 1   
   100   97   98 1   
   101   97   99 1   
   102   97  102 1   
   103   98  103 1   
   104   98  104 1   
   105   98  105 1   
   106   99  106 1   
   107   99  107 1   
   108   99  108 1   
   109  109  110 1   
   110  109  117 1   
   111  110  111 1   
   112  110  113 1   
   113  110  118 1   
   114  111  112 2   
   115  111  123 1   
   116  113  114 1   
   117  113  119 1   
   118  113  120 1   
   119  114  115 1   
   120  114  116 2   
   121  115  121 1   
   122  115  122 1   
   123  123  124 1   
   124  123  135 1   
   125  124  125 1   
   126  124  127 1   
   127  124  136 1   
   128  125  126 2   
   129  125  144 1   
   130  127  128 1   
   131  127  137 1   
   132  127  138 1   
   133  128  129 ar  
   134  128  130 ar  
   135  129  131 ar  
   136  129  139 1   
   137  130  132 ar  
   138  130  140 1   
   139  131  133 ar  
   140  131  141 1   
   141  132  133 ar  
   142  132  142 1   
   143  133  134 1   
   144  134  143 1   
   145  144  145 1   
   146  144  153 1   
   147  145  146 1   
   148  145  148 1   
   149  145  154 1   
   150  146  147 2   
   151  146  159 1   
   152  148  149 1   
   153  148  155 1   
   154  148  156 1   
   155  149  150 1   
   156  149  157 1   
   157  149  158 1   
   158  150  151 1   
   159  150  152 1   
   160  159  160 1   
   161  159  168 1   
   162  160  161 1   
   163  160  163 1   
   164  160  169 1   
   165  161  162 2   
   166  161  174 1   
   167  163  164 1   
   168  163  170 1   
   169  163  171 1   
   170  164  165 1   
   171  164  172 1   
   172  164  173 1   
   173  165  166 1   
   174  165  167 1   
   175  174  175 1   
   176  174  179 1   
   177  175  176 1   
   178  175  177 1   
   179  175  178 1   
   180  181  182 1   
   181  181  183 1   
   182  184  185 1   
   183  184  186 1   
   184  187  188 1   
   185  187  189 1   
   186  190  191 1   
   187  190  192 1   
   188  193  194 1   
   189  193  195 1   
   190  196  197 1   
   191  196  198 1   
   192  199  200 1   
   193  199  201 1   
@<TRIPOS>SUBSTRUCTURE
     1 MOL         1 TEMP              0 ****  ****    0 ROOT
