@<TRIPOS>MOLECULE
MOL
  189   185     1     0     0
SMALL
resp


@<TRIPOS>ATOM
      1 C1         -6.2870   -5.1760    2.1980 c3        1 MOL      0.079708
      2 C2         -4.9940   -4.4110    1.7700 c         1 MOL      0.536584
      3 O1         -4.4030   -3.7210    2.6090 o         1 MOL     -0.525541
      4 H1         -6.9470   -5.2810    1.3370 hc        1 MOL     -0.049863
      5 H2         -6.0180   -6.1630    2.5720 hc        1 MOL     -0.049863
      6 H3         -6.7980   -4.6160    2.9810 hc        1 MOL     -0.049863
      7 N1         -4.5740   -4.4920    0.4810 n         1 MOL     -0.421153
      8 C3         -3.6180   -3.6210   -0.1210 c3        1 MOL      0.002433
      9 C4         -2.1210   -3.6470    0.4860 c         1 MOL      0.442804
     10 O2         -1.3740   -2.8380    0.0330 o         1 MOL     -0.448195
     11 C5         -4.1090   -2.2120   -0.3250 c3        1 MOL     -0.082653
     12 C6         -5.6100   -2.0820   -0.7030 c         1 MOL      0.469648
     13 O3         -5.8840   -2.1230   -1.9490 o         1 MOL     -0.672935
     14 O4         -6.5710   -2.0850    0.1030 o         1 MOL     -0.672935
     15 H4         -5.1280   -5.0760   -0.1340 hn        1 MOL      0.241117
     16 H5         -3.6860   -4.0340   -1.1330 h1        1 MOL      0.083031
     17 H6         -3.5150   -1.7500   -1.1170 hc        1 MOL      0.048032
     18 H7         -3.8920   -1.6550    0.5840 hc        1 MOL      0.048032
     19 N2         -1.6550   -4.6850    1.2040 n         1 MOL     -0.448847
     20 C7         -0.3590   -4.8580    1.8250 c3        1 MOL      0.261508
     21 C8          0.3140   -6.1220    1.1960 c         1 MOL      0.487275
     22 O5          0.0290   -7.2420    1.5930 o         1 MOL     -0.610901
     23 C9         -0.4730   -4.9840    3.3610 c3        1 MOL      0.127778
     24 C10        -1.3200   -3.8750    3.9960 c3        1 MOL      0.019648
     25 C11         0.8540   -5.1430    4.1050 c3        1 MOL     -0.119405
     26 C12        -1.0140   -3.2850    5.3680 c3        1 MOL     -0.590126
     27 H8         -2.3490   -5.3590    1.5110 hn        1 MOL      0.203323
     28 H9          0.2320   -4.0030    1.5070 h1        1 MOL     -0.053788
     29 H10        -0.9810   -5.9390    3.5530 hc        1 MOL     -0.025835
     30 H11        -2.3380   -4.2610    4.0590 hc        1 MOL      0.090772
     31 H12        -1.2500   -2.9980    3.3580 hc        1 MOL      0.090772
     32 H13         1.4610   -4.2470    4.2320 hc        1 MOL      0.019437
     33 H14         0.6730   -5.6090    5.0730 hc        1 MOL      0.019437
     34 H15         1.4460   -5.8650    3.5470 hc        1 MOL      0.019437
     35 H16        -0.0340   -2.8050    5.3810 hc        1 MOL      0.143755
     36 H17        -1.7750   -2.5330    5.5870 hc        1 MOL      0.143755
     37 H18        -1.0710   -4.1490    6.0300 hc        1 MOL      0.143755
     38 N3          1.3330   -6.0640    0.4000 n         1 MOL     -0.430650
     39 C13         2.1310   -4.9050   -0.0900 c3        1 MOL      0.126433
     40 C14         2.6230   -5.0860   -1.5240 c         1 MOL      0.508180
     41 O6          2.8490   -6.2080   -1.9180 o         1 MOL     -0.545269
     42 C15         3.3540   -4.6440    0.8520 c3        1 MOL     -0.120913
     43 C16         3.8820   -3.2570    0.4670 c         1 MOL      0.642435
     44 O7          4.9290   -3.1600   -0.1730 o         1 MOL     -0.608723
     45 O8          3.1730   -2.2950    0.7890 o         1 MOL     -0.608723
     46 H19         1.6730   -7.0030    0.2590 hn        1 MOL      0.285471
     47 H20         1.4850   -4.0320   -0.1310 h1        1 MOL      0.032029
     48 H21         4.0870   -5.4440    0.7250 hc        1 MOL      0.016973
     49 H22         3.0040   -4.6300    1.8850 hc        1 MOL      0.016973
     50 N4          2.7530   -4.0080   -2.3080 n         1 MOL     -0.409051
     51 C17         3.0150   -4.1220   -3.7980 c3        1 MOL     -0.052031
     52 C18         4.2390   -3.3400   -4.2460 c         1 MOL      0.592130
     53 O9          4.6920   -3.5790   -5.3940 o         1 MOL     -0.603118
     54 H23         2.8440   -3.1150   -1.8530 hn        1 MOL      0.250592
     55 H24         2.0990   -3.8320   -4.3220 h1        1 MOL      0.085416
     56 H25         3.2070   -5.1480   -4.1030 h1        1 MOL      0.085416
     57 N5          4.8520   -2.5030   -3.3590 n         1 MOL     -0.548152
     58 C19         5.9020   -1.5730   -3.7830 c3        1 MOL      0.193616
     59 C20         7.0310   -1.3640   -2.7280 c         1 MOL      0.248181
     60 O10         8.0120   -0.6540   -3.0370 o         1 MOL     -0.576383
     61 C21         5.3260   -0.1770   -4.0870 c3        1 MOL     -0.254753
     62 C22         4.3930    0.5400   -3.1110 c         1 MOL      0.782163
     63 O11         4.5850    0.3660   -1.9270 o         1 MOL     -0.704861
     64 O12         3.3820    1.1770   -3.5000 o         1 MOL     -0.704861
     65 H26         4.3560   -2.3310   -2.5010 hn        1 MOL      0.402571
     66 H27         6.3910   -1.9230   -4.6880 h1        1 MOL      0.096955
     67 H28         4.7870   -0.3140   -5.0250 hc        1 MOL      0.030316
     68 H29         6.1340    0.4960   -4.3600 hc        1 MOL      0.030316
     69 N6          6.9150   -1.8430   -1.4610 n         1 MOL      0.065295
     70 C23         7.9230   -1.5900   -0.3930 c3        1 MOL     -0.473821
     71 C24         7.9070   -0.1730    0.1440 c         1 MOL      0.881223
     72 O13         8.6240    0.0250    1.1220 o         1 MOL     -0.699667
     73 H30         6.1160   -2.4100   -1.2110 hn        1 MOL      0.023922
     74 H31         8.9210   -1.7170   -0.8030 h1        1 MOL      0.152077
     75 H32         7.6420   -2.2720    0.4140 h1        1 MOL      0.152077
     76 N7          7.2400    0.7710   -0.5040 n         1 MOL     -0.449060
     77 C25         7.1360    2.2070   -0.2810 c3        1 MOL      0.174280
     78 C26         6.5850    2.8190    1.1100 c         1 MOL      0.286440
     79 O14         6.5170    4.0190    1.2550 o         1 MOL     -0.504499
     80 C27         8.4340    2.9250   -0.6640 c3        1 MOL     -0.060432
     81 C28         8.9770    2.5070   -2.0530 c3        1 MOL     -0.091161
     82 C29        10.0470    3.4270   -2.5110 c         1 MOL      0.660843
     83 N8         10.5650    3.2900   -3.6760 n         1 MOL     -0.780123
     84 O15        10.3320    4.4470   -1.8680 o         1 MOL     -0.597719
     85 H33         6.8040    0.4890   -1.3630 hn        1 MOL      0.247208
     86 H34         6.3560    2.4650   -0.9970 h1        1 MOL      0.093550
     87 H35         9.2320    2.5900   -0.0060 hc        1 MOL      0.026385
     88 H36         8.1830    3.9910   -0.6720 hc        1 MOL      0.026385
     89 H37         8.1600    2.5480   -2.7690 hc        1 MOL      0.051522
     90 H38         9.3330    1.4870   -1.8900 hc        1 MOL      0.051522
     91 H39        10.2410    2.6080   -4.3570 hn        1 MOL      0.336991
     92 H40        11.3570    3.8800   -3.9050 hn        1 MOL      0.336991
     93 N9          6.2370    1.9360    2.0210 n         1 MOL     -0.153593
     94 C30         5.8940    2.2800    3.4680 c3        1 MOL      0.027537
     95 C31         4.3820    2.0250    3.9020 c         1 MOL      0.324775
     96 O16         4.0370    2.4130    5.0650 o         1 MOL     -0.539053
     97 C32         6.8640    1.5300    4.3190 c3        1 MOL      0.519636
     98 C33         6.5710   -0.0500    4.3020 c3        1 MOL     -0.494838
     99 C34         8.3120    1.8950    4.1680 c3        1 MOL     -0.494838
    100 H41         6.1380    1.0000    1.6660 hn        1 MOL      0.174630
    101 H42         6.0570    3.2990    3.8180 h1        1 MOL      0.064708
    102 H43         6.4920    1.7870    5.3040 hc        1 MOL     -0.102617
    103 H44         6.6660   -0.4110    3.2770 hc        1 MOL      0.103372
    104 H45         7.2210   -0.4710    5.0660 hc        1 MOL      0.103372
    105 H46         5.5240   -0.3450    4.4100 hc        1 MOL      0.103372
    106 H47         8.6590    1.6250    3.1780 hc        1 MOL      0.103372
    107 H48         8.3830    2.9790    4.2630 hc        1 MOL      0.103372
    108 H49         8.9110    1.3110    4.8650 hc        1 MOL      0.103372
    109 N10         3.6060    1.4970    2.9450 n         1 MOL     -0.224587
    110 C35         2.1320    1.3030    2.8980 c3        1 MOL      0.139968
    111 C36         1.5720    1.9290    1.6030 c         1 MOL      0.498785
    112 O17         2.3280    2.0700    0.6450 o         1 MOL     -0.479735
    113 C37         1.8110   -0.1260    3.2370 c3        1 MOL     -0.148702
    114 C38         0.5440   -0.6580    2.6070 c         1 MOL      0.700399
    115 N11         0.6400   -1.5600    1.6620 n         1 MOL     -0.828066
    116 O18        -0.5350   -0.1650    2.8890 o         1 MOL     -0.612948
    117 H50         4.0280    1.3830    2.0370 hn        1 MOL      0.185199
    118 H51         1.7510    1.8890    3.7260 h1        1 MOL      0.051061
    119 H52         1.5420   -0.3430    4.2740 hc        1 MOL      0.033082
    120 H53         2.6240   -0.8160    3.0050 hc        1 MOL      0.033082
    121 H54         1.5740   -1.8820    1.4440 hn        1 MOL      0.380502
    122 H55        -0.1670   -1.8210    1.1130 hn        1 MOL      0.380502
    123 N12         0.2620    2.2650    1.5940 n         1 MOL     -0.605926
    124 C39        -0.5830    2.6640    0.4360 c3        1 MOL      0.227855
    125 C40        -1.8980    3.3650    0.8910 c         1 MOL      0.786508
    126 O19        -2.2190    3.2390    2.0760 o         1 MOL     -0.572650
    127 C41        -0.7860    1.4660   -0.4530 c3        1 MOL      0.114712
    128 C42        -1.4380    1.8490   -1.7340 ca        1 MOL     -0.180921
    129 C43        -0.8370    2.7170   -2.7100 ca        1 MOL      0.010235
    130 C44        -2.8020    1.5400   -1.8070 ca        1 MOL      0.010235
    131 C45        -1.6560    3.2070   -3.7060 ca        1 MOL     -0.364522
    132 C46        -3.5910    1.8250   -2.9680 ca        1 MOL     -0.364522
    133 C47        -2.9980    2.8090   -3.8290 ca        1 MOL      0.415315
    134 O20        -3.5210    3.3050   -4.9970 oh        1 MOL     -0.587363
    135 H56        -0.2660    2.0550    2.4300 hn        1 MOL      0.270156
    136 H57         0.0290    3.3430   -0.1480 h1        1 MOL      0.029037
    137 H58        -1.2700    0.5700   -0.0550 hc        1 MOL      0.029016
    138 H59         0.1320    1.0130   -0.8300 hc        1 MOL      0.029016
    139 H60         0.1910    3.0220   -2.5510 ha        1 MOL      0.120650
    140 H61        -3.1980    0.9430   -0.9970 ha        1 MOL      0.120650
    141 H62        -1.2750    3.8420   -4.4970 ha        1 MOL      0.184687
    142 H63        -4.6450    1.5950   -3.0210 ha        1 MOL      0.184687
    143 H64        -4.3960    2.9940   -5.2160 ho        1 MOL      0.417995
    144 N13        -2.5610    4.1080    0.0100 n         1 MOL     -1.105682
    145 C48        -3.6660    4.9950    0.3290 c3        1 MOL      0.617049
    146 C49        -4.9460    4.7700   -0.4600 c         1 MOL      0.701467
    147 O21        -5.2610    5.5160   -1.4460 o         1 MOL     -0.565756
    148 C50        -3.0950    6.4560    0.2920 c3        1 MOL      0.023545
    149 C51        -4.1160    7.3900    0.9080 c3        1 MOL     -0.283872
    150 C52        -4.3290    8.7030    0.1740 c         1 MOL      0.673200
    151 O22        -3.3010    9.2580   -0.3750 o         1 MOL     -0.653973
    152 O23        -5.5010    9.1760    0.0220 o         1 MOL     -0.653973
    153 H65        -2.2630    4.0540   -0.9470 hn        1 MOL      0.395148
    154 H66        -3.9640    4.7760    1.3530 h1        1 MOL     -0.037022
    155 H67        -2.9550    6.7000   -0.7640 hc        1 MOL      0.011464
    156 H68        -2.1750    6.5660    0.8510 hc        1 MOL      0.011464
    157 H69        -3.7020    7.6730    1.8710 hc        1 MOL      0.045406
    158 H70        -5.0540    6.8430    0.9710 hc        1 MOL      0.045406
    159 N14        -5.5880    3.6060   -0.3230 n         1 MOL     -0.792656
    160 C53        -5.4620    2.5520    0.6800 c3        1 MOL     -0.081129
    161 C54        -5.9280    2.9700    2.1210 c         1 MOL      0.645305
    162 O24        -6.1670    4.1320    2.4060 o         1 MOL     -0.560033
    163 C55        -6.2510    1.2900    0.2120 c3        1 MOL      0.448370
    164 C56        -7.7910    1.3790    0.4680 c3        1 MOL     -0.558102
    165 C57        -8.5250    0.3470   -0.3080 c         1 MOL      0.970448
    166 O25        -8.3500    0.1830   -1.5300 o         1 MOL     -0.805469
    167 O26        -9.3960   -0.4040    0.1860 o         1 MOL     -0.805469
    168 H71        -6.3990    3.5530   -0.9260 hn        1 MOL      0.341540
    169 H72        -4.4130    2.2950    0.8270 h1        1 MOL     -0.020683
    170 H73        -5.7780    0.4360    0.6900 hc        1 MOL      0.000562
    171 H74        -6.0690    1.2440   -0.8620 hc        1 MOL      0.000562
    172 H75        -8.1020    2.3690    0.1550 hc        1 MOL      0.101192
    173 H76        -8.0470    1.1940    1.5180 hc        1 MOL      0.101192
    174 N15        -5.7890    2.0010    3.0140 n         1 MOL     -0.206443
    175 C58        -6.0940    1.9630    4.4110 c3        1 MOL     -0.669571
    176 H77        -5.2510    2.3600    4.9760 h1        1 MOL      0.213564
    177 H78        -6.9800    2.5670    4.6070 h1        1 MOL      0.213564
    178 H79        -6.2810    0.9330    4.7150 h1        1 MOL      0.213564
    179 H80        -5.2060    1.2530    2.6740 hn        1 MOL      0.264226
    180 Ca1        -8.5380   -2.3480   -1.5690 Ca        1 MOL      1.537845
    181 O27        -8.8780   -4.3230   -3.3940 oh        1 MOL     -0.781319
    182 H81        -8.1900   -4.4180   -4.0470 ho        1 MOL      0.361449
    183 H82        -9.3680   -5.1320   -3.4380 ho        1 MOL      0.361449
    184 O28       -10.3300   -1.2500   -3.1100 oh        1 MOL     -0.781319
    185 H83       -11.2270   -1.5490   -3.2570 ho        1 MOL      0.361449
    186 H84       -10.0880   -0.8250   -3.9310 ho        1 MOL      0.361449
    187 O29        -7.2520   -1.3430   -3.9610 oh        1 MOL     -0.781319
    188 H85        -6.5180   -1.8380   -3.5840 ho        1 MOL      0.361449
    189 H86        -7.1220   -1.4010   -4.9120 ho        1 MOL      0.361449
@<TRIPOS>BOND
     1    1    2 1   
     2    1    4 1   
     3    1    5 1   
     4    1    6 1   
     5    2    3 2   
     6    2    7 1   
     7    7    8 1   
     8    7   15 1   
     9    8    9 1   
    10    8   11 1   
    11    8   16 1   
    12    9   10 2   
    13    9   19 1   
    14   11   12 1   
    15   11   17 1   
    16   11   18 1   
    17   12   13 1   
    18   12   14 1   
    19   19   20 1   
    20   19   27 1   
    21   20   21 1   
    22   20   23 1   
    23   20   28 1   
    24   21   22 2   
    25   21   38 1   
    26   23   24 1   
    27   23   25 1   
    28   23   29 1   
    29   24   26 1   
    30   24   30 1   
    31   24   31 1   
    32   25   32 1   
    33   25   33 1   
    34   25   34 1   
    35   26   35 1   
    36   26   36 1   
    37   26   37 1   
    38   38   39 1   
    39   38   46 1   
    40   39   40 1   
    41   39   42 1   
    42   39   47 1   
    43   40   41 2   
    44   40   50 1   
    45   42   43 1   
    46   42   48 1   
    47   42   49 1   
    48   43   44 1   
    49   43   45 1   
    50   50   51 1   
    51   50   54 1   
    52   51   52 1   
    53   51   55 1   
    54   51   56 1   
    55   52   53 2   
    56   52   57 1   
    57   57   58 1   
    58   57   65 1   
    59   58   59 1   
    60   58   61 1   
    61   58   66 1   
    62   59   60 2   
    63   59   69 1   
    64   61   62 1   
    65   61   67 1   
    66   61   68 1   
    67   62   63 1   
    68   62   64 1   
    69   69   70 1   
    70   69   73 1   
    71   70   71 1   
    72   70   74 1   
    73   70   75 1   
    74   71   72 2   
    75   71   76 1   
    76   76   77 1   
    77   76   85 1   
    78   77   78 1   
    79   77   80 1   
    80   77   86 1   
    81   78   79 2   
    82   78   93 1   
    83   80   81 1   
    84   80   87 1   
    85   80   88 1   
    86   81   82 1   
    87   81   89 1   
    88   81   90 1   
    89   82   83 1   
    90   82   84 2   
    91   83   91 1   
    92   83   92 1   
    93   93   94 1   
    94   93  100 1   
    95   94   95 1   
    96   94   97 1   
    97   94  101 1   
    98   95   96 2   
    99   95  109 1   
   100   97   98 1   
   101   97   99 1   
   102   97  102 1   
   103   98  103 1   
   104   98  104 1   
   105   98  105 1   
   106   99  106 1   
   107   99  107 1   
   108   99  108 1   
   109  109  110 1   
   110  109  117 1   
   111  110  111 1   
   112  110  113 1   
   113  110  118 1   
   114  111  112 2   
   115  111  123 1   
   116  113  114 1   
   117  113  119 1   
   118  113  120 1   
   119  114  115 1   
   120  114  116 2   
   121  115  121 1   
   122  115  122 1   
   123  123  124 1   
   124  123  135 1   
   125  124  125 1   
   126  124  127 1   
   127  124  136 1   
   128  125  126 2   
   129  125  144 1   
   130  127  128 1   
   131  127  137 1   
   132  127  138 1   
   133  128  129 ar  
   134  128  130 ar  
   135  129  131 ar  
   136  129  139 1   
   137  130  132 ar  
   138  130  140 1   
   139  131  133 ar  
   140  131  141 1   
   141  132  133 ar  
   142  132  142 1   
   143  133  134 1   
   144  134  143 1   
   145  144  145 1   
   146  144  153 1   
   147  145  146 1   
   148  145  148 1   
   149  145  154 1   
   150  146  147 2   
   151  146  159 1   
   152  148  149 1   
   153  148  155 1   
   154  148  156 1   
   155  149  150 1   
   156  149  157 1   
   157  149  158 1   
   158  150  151 1   
   159  150  152 1   
   160  159  160 1   
   161  159  168 1   
   162  160  161 1   
   163  160  163 1   
   164  160  169 1   
   165  161  162 2   
   166  161  174 1   
   167  163  164 1   
   168  163  170 1   
   169  163  171 1   
   170  164  165 1   
   171  164  172 1   
   172  164  173 1   
   173  165  166 1   
   174  165  167 1   
   175  174  175 1   
   176  174  179 1   
   177  175  176 1   
   178  175  177 1   
   179  175  178 1   
   180  181  182 1   
   181  181  183 1   
   182  184  185 1   
   183  184  186 1   
   184  187  188 1   
   185  187  189 1   
@<TRIPOS>SUBSTRUCTURE
     1 MOL         1 TEMP              0 ****  ****    0 ROOT
