@<TRIPOS>MOLECULE
MOL
  192   187     1     0     0
SMALL
resp


@<TRIPOS>ATOM
      1 C1          4.0650   -7.2500   -1.7260 c3        1 MOL     -0.312836
      2 C2          3.7820   -5.9320   -1.0580 c         1 MOL      0.711592
      3 O1          3.3020   -5.9910    0.0480 o         1 MOL     -0.587246
      4 H1          3.9870   -8.0530   -0.9930 hc        1 MOL      0.071936
      5 H2          3.3410   -7.4170   -2.5240 hc        1 MOL      0.071936
      6 H3          5.0710   -7.2370   -2.1450 hc        1 MOL      0.071936
      7 N1          4.1100   -4.7900   -1.6790 n         1 MOL     -0.502690
      8 C3          3.9200   -3.4490   -1.0410 c3        1 MOL      0.077134
      9 C4          2.4740   -2.8480   -0.9590 c         1 MOL      0.395486
     10 O2          2.2120   -2.1200   -0.0320 o         1 MOL     -0.458750
     11 C5          4.7920   -2.3230   -1.7550 c3        1 MOL     -0.166644
     12 C6          4.6570   -2.3350   -3.2610 c         1 MOL      0.756134
     13 O3          4.7580   -3.3790   -3.9160 o         1 MOL     -0.715299
     14 O4          4.6980   -1.2780   -3.9010 o         1 MOL     -0.715299
     15 H4          4.5390   -4.8700   -2.5920 hn        1 MOL      0.277039
     16 H5          4.2060   -3.3880    0.0130 h1        1 MOL      0.059684
     17 H6          5.8060   -2.4680   -1.3890 hc        1 MOL      0.041946
     18 H7          4.5120   -1.3450   -1.3650 hc        1 MOL      0.041946
     19 N2          1.5690   -3.2790   -1.8310 n         1 MOL     -0.352614
     20 C7          0.2110   -2.8120   -1.8920 c3        1 MOL      0.000763
     21 C8         -0.5470   -3.4170   -0.6670 c         1 MOL      0.581110
     22 O5         -0.4190   -4.5940   -0.3420 o         1 MOL     -0.532417
     23 C9         -0.4310   -3.3350   -3.2270 c3        1 MOL     -0.064445
     24 C10        -0.1810   -2.4490   -4.5030 c3        1 MOL      0.014639
     25 C11        -1.1610   -2.9380   -5.5860 c3        1 MOL     -0.108863
     26 C12        -0.9170   -2.1090   -6.8730 c3        1 MOL      0.050791
     27 N3         -1.5180   -0.7530   -6.8960 n4        1 MOL     -0.531716
     28 H8          2.0220   -3.7400   -2.6110 hn        1 MOL      0.218703
     29 H9          0.2070   -1.7150   -1.9040 h1        1 MOL      0.129062
     30 H10        -1.4890   -3.4610   -3.0260 hc        1 MOL      0.066679
     31 H11        -0.0870   -4.3550   -3.3780 hc        1 MOL      0.066679
     32 H12         0.8200   -2.4490   -4.9320 hc        1 MOL      0.037555
     33 H13        -0.3860   -1.4160   -4.2260 hc        1 MOL      0.037555
     34 H14        -2.1880   -2.8120   -5.2310 hc        1 MOL      0.065514
     35 H15        -1.0310   -3.9880   -5.8390 hc        1 MOL      0.065514
     36 H16        -1.0370   -2.6480   -7.8110 hx        1 MOL      0.091072
     37 H17         0.1660   -2.0200   -6.9080 hx        1 MOL      0.091072
     38 H18        -2.5120   -0.7860   -7.0950 hn        1 MOL      0.377864
     39 H19        -1.3680   -0.3110   -6.0050 hn        1 MOL      0.377864
     40 H20        -1.0210   -0.2120   -7.5830 hn        1 MOL      0.377864
     41 N4         -1.3030   -2.6000    0.0870 n         1 MOL     -0.581044
     42 C13        -1.6460   -1.1750   -0.0530 c3        1 MOL     -0.006805
     43 C14        -2.0780   -0.5860   -1.3810 c         1 MOL      0.435463
     44 O6         -1.3470    0.1610   -2.0190 o         1 MOL     -0.572807
     45 C15        -0.5670   -0.2740    0.5410 c3        1 MOL     -0.118688
     46 C16        -0.3100   -0.6670    1.9860 c         1 MOL      0.520815
     47 O7          0.6180   -0.1540    2.5550 o         1 MOL     -0.670466
     48 O8         -1.0070   -1.4880    2.5830 o         1 MOL     -0.670466
     49 H21        -1.7860   -3.1350    0.7900 hn        1 MOL      0.323596
     50 H22        -2.5270   -1.0590    0.5870 h1        1 MOL      0.131046
     51 H23        -0.9590    0.7420    0.4860 hc        1 MOL      0.109665
     52 H24         0.3630   -0.3060   -0.0310 hc        1 MOL      0.109665
     53 N5         -3.1750   -1.0440   -1.9610 n         1 MOL     -0.333317
     54 C17        -4.0730   -2.0030   -1.3790 c3        1 MOL      0.022836
     55 C18        -5.2590   -2.3870   -2.2080 c         1 MOL      0.573001
     56 O9         -5.2300   -2.3180   -3.4460 o         1 MOL     -0.599836
     57 H25        -3.3700   -0.7040   -2.8900 hn        1 MOL      0.249549
     58 H26        -4.4080   -1.6100   -0.4240 h1        1 MOL      0.039712
     59 H27        -3.5190   -2.9230   -1.2070 h1        1 MOL      0.039712
     60 N6         -6.3100   -2.9130   -1.6550 n         1 MOL     -0.485107
     61 C19        -6.5550   -3.2050   -0.2360 c3        1 MOL     -0.014956
     62 C20        -7.2840   -2.0830    0.4230 c         1 MOL      0.719173
     63 O10        -7.8910   -1.2460   -0.2800 o         1 MOL     -0.481764
     64 C21        -7.2320   -4.5510   -0.1890 c3        1 MOL     -0.216426
     65 C22        -8.5910   -4.5140   -0.8910 c         1 MOL      0.695970
     66 O11        -9.5690   -4.6850   -0.1490 o         1 MOL     -0.657650
     67 O12        -8.6890   -4.2120   -2.0960 o         1 MOL     -0.657650
     68 H28        -7.1320   -2.9830   -2.2360 hn        1 MOL      0.330844
     69 H29        -5.6260   -3.2130    0.3460 h1        1 MOL      0.039075
     70 H30        -7.2890   -4.8940    0.8460 hc        1 MOL      0.044976
     71 H31        -6.5870   -5.3310   -0.5790 hc        1 MOL      0.044976
     72 N7         -7.2090   -1.9170    1.7860 n         1 MOL     -0.615569
     73 C23        -7.7640   -0.7580    2.5680 c3        1 MOL     -0.046640
     74 C24        -7.0000    0.4890    2.4460 c         1 MOL      0.486926
     75 O13        -7.5900    1.5740    2.2070 o         1 MOL     -0.548312
     76 H32        -6.7190   -2.6000    2.3430 hn        1 MOL      0.319687
     77 H33        -7.7720   -0.9430    3.6490 h1        1 MOL      0.112206
     78 H34        -8.8160   -0.5340    2.4000 h1        1 MOL      0.112206
     79 N8         -5.6830    0.4290    2.3850 n         1 MOL     -0.456097
     80 C25        -4.8620    1.6420    2.2310 c3        1 MOL     -0.023583
     81 C26        -4.7120    2.0560    0.7590 c         1 MOL      0.732708
     82 O14        -4.5890    1.2140   -0.1430 o         1 MOL     -0.529868
     83 C27        -3.4550    1.3710    2.7640 c3        1 MOL      0.701378
     84 C28        -3.2610    1.0410    4.2500 c3        1 MOL     -0.421091
     85 O15        -2.6190    2.5370    2.6020 oh        1 MOL     -0.811219
     86 H35        -5.2520   -0.4610    2.5900 hn        1 MOL      0.259043
     87 H36        -5.4570    2.4030    2.7460 h1        1 MOL      0.071221
     88 H37        -3.0260    0.5780    2.1550 h1        1 MOL     -0.132830
     89 H38        -1.7290    2.4090    2.9500 ho        1 MOL      0.495989
     90 H39        -2.3040    1.4080    4.6220 hc        1 MOL      0.077113
     91 H40        -4.0780    1.4980    4.8110 hc        1 MOL      0.077113
     92 H41        -3.2310   -0.0410    4.3890 hc        1 MOL      0.077113
     93 N9         -4.6480    3.3610    0.5070 n         1 MOL     -0.624390
     94 C29        -4.4970    3.9400   -0.8530 c3        1 MOL     -0.057729
     95 C30        -3.1400    4.6440   -1.0790 c         1 MOL      0.515625
     96 O16        -2.9100    5.3750   -2.0210 o         1 MOL     -0.586177
     97 C31        -5.7410    4.8540   -1.1910 c3        1 MOL      0.151569
     98 C32        -5.8940    6.0700   -0.2830 c3        1 MOL      0.036975
     99 C33        -6.9670    3.8950   -1.3660 c3        1 MOL     -0.330058
    100 C34        -6.6980    7.2470   -0.7880 c3        1 MOL     -0.234755
    101 H42        -4.7830    3.9710    1.2990 hn        1 MOL      0.314062
    102 H43        -4.4510    3.2310   -1.6780 h1        1 MOL      0.132654
    103 H44        -5.5740    5.2720   -2.1850 hc        1 MOL      0.002771
    104 H45        -4.9260    6.3890    0.1030 hc        1 MOL      0.020055
    105 H46        -6.3720    5.7270    0.6330 hc        1 MOL      0.020055
    106 H47        -7.1570    3.2390   -0.5200 hc        1 MOL      0.100968
    107 H48        -7.8730    4.4830   -1.5130 hc        1 MOL      0.100968
    108 H49        -6.8260    3.2310   -2.2250 hc        1 MOL      0.100968
    109 H50        -6.3470    7.8130   -1.6470 hc        1 MOL      0.058882
    110 H51        -7.6990    6.9420   -1.0620 hc        1 MOL      0.058882
    111 H52        -6.9220    7.9530    0.0050 hc        1 MOL      0.058882
    112 N10        -2.2060    4.3600   -0.2470 n         1 MOL     -0.277513
    113 C35        -0.8850    4.9060   -0.0930 c3        1 MOL     -0.004559
    114 C36         0.1200    3.7780    0.0420 c         1 MOL      0.504099
    115 O17         0.2000    3.0780    1.0470 o         1 MOL     -0.533293
    116 C37        -0.6860    5.7630    1.1440 c3        1 MOL      0.380911
    117 C38        -1.5430    6.9800    1.0790 c3        1 MOL     -0.202288
    118 O18         0.7240    6.1290    1.3090 oh        1 MOL     -0.681223
    119 H53        -2.5470    3.7940    0.5140 hn        1 MOL      0.193909
    120 H54        -0.6630    5.4210   -1.0220 h1        1 MOL      0.107588
    121 H55        -1.0170    5.3040    2.0760 h1        1 MOL     -0.002886
    122 H56         0.9910    6.4840    2.1580 ho        1 MOL      0.424273
    123 H57        -1.7230    7.3550    0.0670 hc        1 MOL      0.041440
    124 H58        -2.5380    6.8100    1.4790 hc        1 MOL      0.041440
    125 H59        -1.1170    7.7390    1.7380 hc        1 MOL      0.041440
    126 N11         0.8790    3.6430   -1.0330 n         1 MOL     -0.501858
    127 C39         1.9500    2.5420   -1.1010 c3        1 MOL      0.080005
    128 C40         3.4060    3.0960   -0.9340 c         1 MOL      0.644669
    129 O19         3.6890    4.2890   -1.1810 o         1 MOL     -0.566869
    130 C41         1.7870    1.8630   -2.4690 c3        1 MOL      0.259838
    131 C42         2.1850    0.4010   -2.4340 c3        1 MOL      0.049123
    132 O20         2.4610    2.5640   -3.4520 oh        1 MOL     -0.663239
    133 H60         0.9520    4.3120   -1.7840 hn        1 MOL      0.300408
    134 H61         1.9030    1.8640   -0.2520 h1        1 MOL      0.052201
    135 H62         0.7180    1.7700   -2.6900 h1        1 MOL      0.000493
    136 H63         1.9950    2.7660   -4.2720 ho        1 MOL      0.413818
    137 H64         3.2560    0.2910   -2.2570 hc        1 MOL     -0.038343
    138 H65         1.5460   -0.1490   -1.7460 hc        1 MOL     -0.038343
    139 H66         1.9830   -0.0420   -3.4150 hc        1 MOL     -0.038343
    140 N12         4.3560    2.2570   -0.5000 n         1 MOL     -0.506352
    141 C43         5.7770    2.5760   -0.2880 c3        1 MOL     -0.089808
    142 C44         6.3820    1.6690    0.8250 c         1 MOL      0.601984
    143 O21         7.4840    1.9870    1.3090 o         1 MOL     -0.614175
    144 C45         6.4440    2.2680   -1.6480 c3        1 MOL      0.060698
    145 C46         7.9090    2.6670   -1.7140 c3        1 MOL      0.136193
    146 C47         8.6450    3.0050   -3.0200 c3        1 MOL     -0.175697
    147 C48         7.9730    4.0680   -3.8730 c3        1 MOL     -0.071689
    148 N13         8.4360    5.4900   -3.4910 n4        1 MOL     -0.202952
    149 H67         3.9960    1.4050   -0.0910 hn        1 MOL      0.275442
    150 H68         5.8950    3.6310   -0.0560 h1        1 MOL      0.120925
    151 H69         5.9600    2.9030   -2.3990 hc        1 MOL      0.031311
    152 H70         6.3540    1.2220   -1.9210 hc        1 MOL      0.031311
    153 H71         8.4670    1.8560   -1.2530 hc        1 MOL     -0.016674
    154 H72         7.9900    3.6130   -1.1810 hc        1 MOL     -0.016674
    155 H73         8.6230    2.1190   -3.6410 hc        1 MOL      0.085350
    156 H74         9.6860    3.2570   -2.8450 hc        1 MOL      0.085350
    157 H75         6.8840    4.0860   -3.7780 hx        1 MOL      0.119438
    158 H76         8.1810    3.9330   -4.9340 hx        1 MOL      0.119438
    159 H77         8.0350    6.2270   -4.0600 hn        1 MOL      0.261818
    160 H78         8.3650    5.7260   -2.5160 hn        1 MOL      0.261818
    161 H79         9.4140    5.5860   -3.7270 hn        1 MOL      0.261818
    162 N14         5.6530    0.7080    1.4100 n         1 MOL     -0.370901
    163 C49         6.1540    0.0340    2.6250 c3        1 MOL     -0.037009
    164 C50         7.1180   -1.1080    2.2370 c         1 MOL      0.443326
    165 O22         6.6830   -2.0620    1.5780 o         1 MOL     -0.440969
    166 C51         5.0030   -0.5390    3.4870 c3        1 MOL     -0.757557
    167 C52         5.3940   -1.0450    4.8780 c3        1 MOL      0.501748
    168 C53         4.0900   -1.4840    5.6600 c         1 MOL      0.464987
    169 O23         4.1740   -1.5220    6.9030 o         1 MOL     -0.687297
    170 O24         3.1540   -2.0320    5.0980 o         1 MOL     -0.687297
    171 H80         4.7390    0.4330    1.0650 hn        1 MOL      0.311579
    172 H81         6.6600    0.7770    3.2410 h1        1 MOL      0.145262
    173 H82         4.5690   -1.3500    2.9120 hc        1 MOL      0.207821
    174 H83         4.2370    0.2470    3.5320 hc        1 MOL      0.207821
    175 H84         5.9990   -0.3310    5.4270 hc        1 MOL     -0.074290
    176 H85         6.0700   -1.8870    4.7720 hc        1 MOL     -0.074290
    177 N15         8.3960   -1.1460    2.6050 n         1 MOL     -0.299278
    178 C54         9.3480   -2.1250    2.1240 c3        1 MOL      0.000126
    179 H86         8.8670   -3.1010    2.0680 h1        1 MOL      0.050468
    180 H87         9.6970   -1.8360    1.1320 h1        1 MOL      0.050468
    181 H88        10.1950   -2.1770    2.8070 h1        1 MOL      0.050468
    182 H89         8.7670   -0.3800    3.1430 hn        1 MOL      0.244211
    183 Ca1         0.6450   -1.8770    4.6300 Ca        1 MOL      1.738285
    184 O25        -1.7850   -2.5120    5.5700 oh        1 MOL     -0.909334
    185 H90        -2.2000   -1.7230    5.9230 ho        1 MOL      0.445917
    186 H91        -2.4130   -3.2070    5.7180 ho        1 MOL      0.445917
    187 O26         1.6890   -3.1860    2.4550 oh        1 MOL     -0.909334
    188 H92         1.8830   -2.8070    1.5950 ho        1 MOL      0.445917
    189 H93         1.6100   -4.1280    2.2900 ho        1 MOL      0.445917
    190 O27         0.8250    0.6570    5.5640 oh        1 MOL     -0.909334
    191 H94         0.2350    1.2680    6.0040 ho        1 MOL      0.445917
    192 H95         1.6290    0.6860    6.0820 ho        1 MOL      0.445917
@<TRIPOS>BOND
     1    1    2 1   
     2    1    4 1   
     3    1    5 1   
     4    1    6 1   
     5    2    3 2   
     6    2    7 1   
     7    7    8 1   
     8    7   15 1   
     9    8    9 1   
    10    8   11 1   
    11    8   16 1   
    12    9   10 2   
    13    9   19 1   
    14   11   12 1   
    15   11   17 1   
    16   11   18 1   
    17   12   13 1   
    18   12   14 1   
    19   19   20 1   
    20   19   28 1   
    21   20   21 1   
    22   20   23 1   
    23   20   29 1   
    24   21   22 2   
    25   21   41 1   
    26   23   24 1   
    27   23   30 1   
    28   23   31 1   
    29   24   25 1   
    30   24   32 1   
    31   24   33 1   
    32   25   26 1   
    33   25   34 1   
    34   25   35 1   
    35   26   27 1   
    36   26   36 1   
    37   26   37 1   
    38   27   38 1   
    39   27   39 1   
    40   27   40 1   
    41   41   42 1   
    42   41   49 1   
    43   42   43 1   
    44   42   45 1   
    45   42   50 1   
    46   43   44 2   
    47   43   53 1   
    48   45   46 1   
    49   45   51 1   
    50   45   52 1   
    51   46   47 1   
    52   46   48 1   
    53   53   54 1   
    54   53   57 1   
    55   54   55 1   
    56   54   58 1   
    57   54   59 1   
    58   55   56 2   
    59   55   60 1   
    60   60   61 1   
    61   60   68 1   
    62   61   62 1   
    63   61   64 1   
    64   61   69 1   
    65   62   63 2   
    66   62   72 1   
    67   64   65 1   
    68   64   70 1   
    69   64   71 1   
    70   65   66 1   
    71   65   67 1   
    72   72   73 1   
    73   72   76 1   
    74   73   74 1   
    75   73   77 1   
    76   73   78 1   
    77   74   75 2   
    78   74   79 1   
    79   79   80 1   
    80   79   86 1   
    81   80   81 1   
    82   80   83 1   
    83   80   87 1   
    84   81   82 2   
    85   81   93 1   
    86   83   84 1   
    87   83   85 1   
    88   83   88 1   
    89   84   90 1   
    90   84   91 1   
    91   84   92 1   
    92   85   89 1   
    93   93   94 1   
    94   93  101 1   
    95   94   95 1   
    96   94   97 1   
    97   94  102 1   
    98   95   96 2   
    99   95  112 1   
   100   97   98 1   
   101   97   99 1   
   102   97  103 1   
   103   98  100 1   
   104   98  104 1   
   105   98  105 1   
   106   99  106 1   
   107   99  107 1   
   108   99  108 1   
   109  100  109 1   
   110  100  110 1   
   111  100  111 1   
   112  112  113 1   
   113  112  119 1   
   114  113  114 1   
   115  113  116 1   
   116  113  120 1   
   117  114  115 2   
   118  114  126 1   
   119  116  117 1   
   120  116  118 1   
   121  116  121 1   
   122  117  123 1   
   123  117  124 1   
   124  117  125 1   
   125  118  122 1   
   126  126  127 1   
   127  126  133 1   
   128  127  128 1   
   129  127  130 1   
   130  127  134 1   
   131  128  129 2   
   132  128  140 1   
   133  130  131 1   
   134  130  132 1   
   135  130  135 1   
   136  131  137 1   
   137  131  138 1   
   138  131  139 1   
   139  132  136 1   
   140  140  141 1   
   141  140  149 1   
   142  141  142 1   
   143  141  144 1   
   144  141  150 1   
   145  142  143 2   
   146  142  162 1   
   147  144  145 1   
   148  144  151 1   
   149  144  152 1   
   150  145  146 1   
   151  145  153 1   
   152  145  154 1   
   153  146  147 1   
   154  146  155 1   
   155  146  156 1   
   156  147  148 1   
   157  147  157 1   
   158  147  158 1   
   159  148  159 1   
   160  148  160 1   
   161  148  161 1   
   162  162  163 1   
   163  162  171 1   
   164  163  164 1   
   165  163  166 1   
   166  163  172 1   
   167  164  165 2   
   168  164  177 1   
   169  166  167 1   
   170  166  173 1   
   171  166  174 1   
   172  167  168 1   
   173  167  175 1   
   174  167  176 1   
   175  168  169 1   
   176  168  170 1   
   177  177  178 1   
   178  177  182 1   
   179  178  179 1   
   180  178  180 1   
   181  178  181 1   
   182  184  185 1   
   183  184  186 1   
   184  187  188 1   
   185  187  189 1   
   186  190  191 1   
   187  190  192 1   
@<TRIPOS>SUBSTRUCTURE
     1 MOL         1 TEMP              0 ****  ****    0 ROOT
