@<TRIPOS>MOLECULE
MOL
  192   187     1     0     0
SMALL
resp


@<TRIPOS>ATOM
      1 C1          9.8150    1.5660    1.1780 c3        1 MOL     -0.526864
      2 C2          8.6280    0.7820    0.5830 c         1 MOL      0.863362
      3 O1          7.5870    0.7360    1.1840 o         1 MOL     -0.661445
      4 H1         10.4000    0.9060    1.8180 hc        1 MOL      0.130384
      5 H2         10.4450    1.9410    0.3720 hc        1 MOL      0.130384
      6 H3          9.4390    2.4030    1.7670 hc        1 MOL      0.130384
      7 N1          8.7810    0.2510   -0.6470 n         1 MOL     -0.765345
      8 C3          7.7390   -0.3080   -1.5820 c3        1 MOL      0.228940
      9 C4          7.1450   -1.7370   -1.2780 c         1 MOL      0.330063
     10 O2          7.0490   -2.6380   -2.0920 o         1 MOL     -0.433314
     11 C5          8.2070   -0.1430   -3.0320 c3        1 MOL     -0.346098
     12 C6          9.5530   -0.8200   -3.3670 c         1 MOL      0.783070
     13 O3         10.1960   -1.4350   -2.5290 o         1 MOL     -0.676758
     14 O4         10.0290   -0.6220   -4.5410 o         1 MOL     -0.676758
     15 H4          9.7340    0.3700   -0.9650 hn        1 MOL      0.350563
     16 H5          6.8270    0.2820   -1.5120 h1        1 MOL      0.094702
     17 H6          8.2870    0.9400   -3.1790 hc        1 MOL      0.089803
     18 H7          7.4970   -0.5100   -3.7590 hc        1 MOL      0.089803
     19 N2          6.9320   -2.0550    0.0200 n         1 MOL     -0.109396
     20 C7          6.4360   -3.3040    0.6050 c3        1 MOL      0.088249
     21 C8          4.9700   -3.7290    0.3080 c         1 MOL      0.451385
     22 O5          4.8130   -4.8280   -0.1920 o         1 MOL     -0.531701
     23 C9          6.8220   -3.4350    2.1080 c3        1 MOL      0.004414
     24 C10         8.2280   -3.9170    2.4510 c3        1 MOL      0.036690
     25 C11         9.3460   -2.9910    2.0740 c3        1 MOL     -0.091461
     26 C12        10.7670   -3.1670    2.7490 c3        1 MOL     -0.160206
     27 N3         10.6970   -3.1430    4.2200 n4        1 MOL     -0.170358
     28 H8          7.0290   -1.2800    0.6570 hn        1 MOL      0.070493
     29 H9          6.9450   -4.1260    0.1040 h1        1 MOL      0.053431
     30 H10         6.1660   -4.1610    2.5860 hc        1 MOL      0.000169
     31 H11         6.5020   -2.5950    2.7200 hc        1 MOL      0.000169
     32 H12         8.4580   -4.9070    2.0480 hc        1 MOL      0.010641
     33 H13         8.2600   -3.9860    3.5420 hc        1 MOL      0.010641
     34 H14         8.9920   -1.9630    2.1320 hc        1 MOL      0.071251
     35 H15         9.5130   -3.1980    1.0120 hc        1 MOL      0.071251
     36 H16        11.4910   -2.4310    2.4210 hx        1 MOL      0.143024
     37 H17        11.1390   -4.1260    2.3820 hx        1 MOL      0.143024
     38 H18        11.6300   -3.3850    4.5210 hn        1 MOL      0.243013
     39 H19        10.5610   -2.2140    4.5760 hn        1 MOL      0.243013
     40 H20        10.0910   -3.7890    4.7160 hn        1 MOL      0.243013
     41 N4          3.9350   -2.9600    0.5710 n         1 MOL     -0.385428
     42 C13         4.0160   -1.5930    1.1900 c3        1 MOL      0.054496
     43 C14         4.1550   -0.3850    0.1780 c         1 MOL      0.404853
     44 O6          3.9190   -0.5200   -0.9880 o         1 MOL     -0.516829
     45 C15         2.8640   -1.3850    2.2280 c3        1 MOL     -0.301415
     46 C16         1.4510   -1.6420    1.6050 c         1 MOL      0.808917
     47 O7          1.0480   -1.1640    0.5560 o         1 MOL     -0.741270
     48 O8          0.6860   -2.3590    2.2850 o         1 MOL     -0.741270
     49 H21         3.0190   -3.2560    0.2850 hn        1 MOL      0.328808
     50 H22         4.9460   -1.5210    1.7510 h1        1 MOL      0.053617
     51 H23         2.8860   -0.3460    2.5520 hc        1 MOL      0.064040
     52 H24         3.0650   -2.0800    3.0440 hc        1 MOL      0.064040
     53 N5          4.3160    0.8200    0.7170 n         1 MOL     -0.227423
     54 C17         4.2340    2.0660    0.0080 c3        1 MOL     -0.128151
     55 C18         2.8620    2.4590   -0.5760 c         1 MOL      0.694872
     56 O9          1.8070    1.7790   -0.3870 o         1 MOL     -0.696507
     57 H25         4.4190    0.8880    1.7280 hn        1 MOL      0.252301
     58 H26         4.9550    2.0650   -0.8060 h1        1 MOL      0.085830
     59 H27         4.6300    2.7550    0.7510 h1        1 MOL      0.085830
     60 N6          2.8810    3.6150   -1.2340 n         1 MOL     -0.606165
     61 C19         1.7650    4.0390   -2.1410 c3        1 MOL      0.236369
     62 C20         2.0050    5.5810   -2.4760 c         1 MOL      0.412206
     63 O10         3.0930    6.0940   -2.2490 o         1 MOL     -0.524702
     64 C21         1.8200    3.1370   -3.4220 c3        1 MOL      0.033076
     65 C22         0.4980    2.5750   -3.7970 c         1 MOL      0.582087
     66 O11        -0.3550    2.3120   -2.8860 o         1 MOL     -0.673225
     67 O12         0.2050    2.3580   -5.0130 o         1 MOL     -0.673225
     68 H28         3.7540    4.1190   -1.2660 hn        1 MOL      0.293911
     69 H29         0.8510    4.0010   -1.5460 h1        1 MOL      0.130094
     70 H30         2.5200    2.3180   -3.2540 hc        1 MOL     -0.006649
     71 H31         2.1280    3.7090   -4.3050 hc        1 MOL     -0.006649
     72 N7          1.0680    6.2470   -3.1070 n         1 MOL     -0.415484
     73 C23        -0.4000    5.9310   -3.0720 c3        1 MOL     -0.112252
     74 C24        -0.9020    5.7820   -1.5620 c         1 MOL      0.551412
     75 O13        -0.1830    6.0600   -0.5800 o         1 MOL     -0.473181
     76 H32         1.2880    7.1410   -3.5080 hn        1 MOL      0.311157
     77 H33        -0.5570    5.0580   -3.7120 h1        1 MOL      0.103892
     78 H34        -0.9220    6.7530   -3.5670 h1        1 MOL      0.103892
     79 N8         -2.1190    5.2610   -1.4830 n         1 MOL     -0.600869
     80 C25        -2.7160    4.9590   -0.1660 c3        1 MOL      0.094338
     81 C26        -1.9290    3.7530    0.5720 c         1 MOL      0.469100
     82 O14        -1.2440    2.9760   -0.0810 o         1 MOL     -0.567308
     83 C27        -4.2360    4.6520   -0.3010 c3        1 MOL      0.340263
     84 C28        -5.0130    4.8030    1.0180 c3        1 MOL     -0.288035
     85 O15        -4.5420    3.4130   -0.9710 oh        1 MOL     -0.625394
     86 H35        -2.4290    4.6700   -2.2400 hn        1 MOL      0.332791
     87 H36        -2.6010    5.8600    0.4210 h1        1 MOL      0.069265
     88 H37        -4.6600    5.4540   -0.8970 h1        1 MOL      0.003274
     89 H38        -5.4990    3.3920   -1.0030 ho        1 MOL      0.400084
     90 H39        -6.0490    4.5680    0.7580 hc        1 MOL      0.074925
     91 H40        -4.6690    4.1370    1.8070 hc        1 MOL      0.074925
     92 H41        -4.9700    5.8470    1.3410 hc        1 MOL      0.074925
     93 N9         -1.9730    3.8570    1.9090 n         1 MOL     -0.244239
     94 C29        -1.3450    2.9660    2.9350 c3        1 MOL     -0.336149
     95 C30        -1.7570    1.5160    2.6180 c         1 MOL      0.612992
     96 O16        -1.3070    0.9580    1.6140 o         1 MOL     -0.522405
     97 C31         0.2070    3.1160    2.8420 c3        1 MOL      0.331755
     98 C32         0.5320    4.5930    3.1110 c3        1 MOL     -0.011564
     99 C33         0.8480    2.2120    3.8810 c3        1 MOL     -0.454093
    100 C34         1.9960    4.9630    3.0400 c3        1 MOL      0.038972
    101 H42        -2.4330    4.6520    2.3270 hn        1 MOL      0.223621
    102 H43        -1.7010    3.2630    3.9170 h1        1 MOL      0.130269
    103 H44         0.5100    2.9040    1.8240 hc        1 MOL      0.032456
    104 H45         0.1190    4.8370    4.0840 hc        1 MOL     -0.017020
    105 H46         0.0930    5.2550    2.3680 hc        1 MOL     -0.017020
    106 H47         0.7550    1.1830    3.5440 hc        1 MOL      0.106030
    107 H48         1.9200    2.3920    3.9290 hc        1 MOL      0.106030
    108 H49         0.4470    2.3510    4.8880 hc        1 MOL      0.106030
    109 H50         2.2860    6.0120    3.1130 hc        1 MOL     -0.011743
    110 H51         2.4580    4.4100    3.8590 hc        1 MOL     -0.011743
    111 H52         2.4370    4.4660    2.1730 hc        1 MOL     -0.011743
    112 N10        -2.5530    0.8860    3.4760 n         1 MOL     -0.405449
    113 C35        -2.9090   -0.4930    3.4830 c3        1 MOL     -0.047174
    114 C36        -4.2220   -0.7660    2.7460 c         1 MOL      0.573538
    115 O17        -4.6660   -1.8900    2.4950 o         1 MOL     -0.589479
    116 C37        -2.9300   -1.0770    4.9120 c3        1 MOL      0.518588
    117 C38        -4.1860   -0.6950    5.7370 c3        1 MOL     -0.221179
    118 O18        -1.7700   -0.7580    5.6700 oh        1 MOL     -0.666685
    119 H53        -2.8200    1.4550    4.2710 hn        1 MOL      0.265933
    120 H54        -2.1430   -1.1100    3.0230 h1        1 MOL      0.072561
    121 H55        -2.9190   -2.1610    4.7870 h1        1 MOL     -0.023122
    122 H56        -0.9940   -1.1860    5.2970 ho        1 MOL      0.402800
    123 H57        -4.1690   -1.1250    6.7380 hc        1 MOL      0.045703
    124 H58        -4.4160    0.3610    5.6250 hc        1 MOL      0.045703
    125 H59        -4.8780   -1.3130    5.1690 hc        1 MOL      0.045703
    126 N11        -5.0040    0.2400    2.4360 n         1 MOL     -0.313778
    127 C39        -6.3480    0.2380    1.8370 c3        1 MOL     -0.194312
    128 C40        -6.3480   -0.3860    0.4840 c         1 MOL      0.590731
    129 O19        -5.6350    0.1540   -0.3490 o         1 MOL     -0.558661
    130 C41        -6.9790    1.6250    1.7860 c3        1 MOL      0.469165
    131 C42        -8.3760    1.5820    1.3450 c3        1 MOL     -0.383743
    132 O20        -6.8740    2.3520    3.0540 oh        1 MOL     -0.635820
    133 H60        -4.6080    1.1600    2.5860 hn        1 MOL      0.168772
    134 H61        -7.0310   -0.3010    2.4850 h1        1 MOL      0.056992
    135 H62        -6.3630    2.1630    1.0600 h1        1 MOL      0.019816
    136 H63        -6.9410    1.7000    3.7470 ho        1 MOL      0.383009
    137 H64        -8.9490    2.4530    1.6800 hc        1 MOL      0.096027
    138 H65        -8.4520    1.6410    0.2560 hc        1 MOL      0.096027
    139 H66        -8.8080    0.6760    1.7700 hc        1 MOL      0.096027
    140 N12        -7.1120   -1.4900    0.2840 n         1 MOL     -0.320919
    141 C43        -6.9990   -2.2810   -0.9670 c3        1 MOL      0.239326
    142 C44        -5.5690   -2.5050   -1.4550 c         1 MOL      0.419092
    143 O21        -5.2380   -2.1100   -2.5750 o         1 MOL     -0.500468
    144 C45        -7.8860   -1.6990   -2.1100 c3        1 MOL     -0.963907
    145 C46        -9.3580   -1.4930   -1.7300 c3        1 MOL      0.216168
    146 C47        -9.9990   -2.8940   -1.5110 c3        1 MOL     -0.077836
    147 C48       -11.4230   -2.8590   -0.9290 c3        1 MOL      0.043201
    148 N13       -12.0630   -4.2040   -1.0590 n4        1 MOL     -0.169872
    149 H67        -7.4800   -1.9120    1.1230 hn        1 MOL      0.242898
    150 H68        -7.3830   -3.2640   -0.7050 h1        1 MOL      0.009516
    151 H69        -7.8610   -2.2790   -3.0400 hc        1 MOL      0.324978
    152 H70        -7.5880   -0.6760   -2.3220 hc        1 MOL      0.324978
    153 H71        -9.9690   -1.0030   -2.4900 hc        1 MOL     -0.003629
    154 H72        -9.4390   -0.8970   -0.8220 hc        1 MOL     -0.003629
    155 H73        -9.4220   -3.4410   -0.7640 hc        1 MOL      0.070157
    156 H74       -10.0400   -3.3250   -2.5180 hc        1 MOL      0.070157
    157 H75       -11.9820   -2.1510   -1.5280 hx        1 MOL      0.043667
    158 H76       -11.3570   -2.4560    0.0810 hx        1 MOL      0.043667
    159 H77       -11.6310   -4.8340   -0.3910 hn        1 MOL      0.200240
    160 H78       -12.9610   -4.1040   -0.6180 hn        1 MOL      0.200240
    161 H79       -12.1700   -4.5400   -2.0070 hn        1 MOL      0.200240
    162 N14        -4.6880   -3.0370   -0.6100 n         1 MOL     -0.468795
    163 C49        -3.2370   -3.0840   -1.0680 c3        1 MOL      0.529277
    164 C50        -2.2250   -2.6580   -0.0420 c         1 MOL      0.357993
    165 O22        -1.9160   -1.4720    0.0540 o         1 MOL     -0.608616
    166 C51        -2.8650   -4.4090   -1.7380 c3        1 MOL     -0.185379
    167 C52        -3.7030   -4.6930   -2.9560 c3        1 MOL     -0.199897
    168 C53        -3.3980   -6.0950   -3.5620 c         1 MOL      0.706750
    169 O23        -4.0180   -7.0950   -3.1070 o         1 MOL     -0.635778
    170 O24        -2.7650   -6.2140   -4.6400 o         1 MOL     -0.635778
    171 H80        -5.0090   -3.4110    0.2810 hn        1 MOL      0.273339
    172 H81        -3.0560   -2.2760   -1.7700 h1        1 MOL      0.014247
    173 H82        -3.0300   -5.2080   -1.0210 hc        1 MOL      0.047050
    174 H83        -1.8220   -4.3660   -2.0550 hc        1 MOL      0.047050
    175 H84        -3.6160   -3.9260   -3.7260 hc        1 MOL      0.052491
    176 H85        -4.7420   -4.8180   -2.6460 hc        1 MOL      0.052491
    177 N15        -1.7290   -3.4410    0.9540 n         1 MOL     -0.419473
    178 C54        -2.1380   -4.7910    1.5140 c3        1 MOL     -0.156073
    179 H86        -2.1590   -4.7420    2.6020 h1        1 MOL      0.081057
    180 H87        -3.1290   -5.0530    1.1430 h1        1 MOL      0.081057
    181 H88        -1.4200   -5.5480    1.1990 h1        1 MOL      0.081057
    182 H89        -1.0680   -2.9640    1.5410 hn        1 MOL      0.409197
    183 Ca1        -0.4950    0.5240   -0.9890 Ca        1 MOL      1.819716
    184 O25         1.8150   -0.3250   -2.4770 oh        1 MOL     -0.904037
    185 H90         2.0940   -0.9730   -3.1130 ho        1 MOL      0.444825
    186 H91         2.5640   -0.2390   -1.8820 ho        1 MOL      0.444825
    187 O26        -1.0740   -1.0530   -3.1240 oh        1 MOL     -0.904037
    188 H92        -0.6400   -1.8290   -3.4860 ho        1 MOL      0.444825
    189 H93        -1.5670   -0.6870   -3.8480 ho        1 MOL      0.444825
    190 O27        -3.1970    1.0100   -1.6490 oh        1 MOL     -0.904037
    191 H94        -3.8610    0.3380   -1.5150 ho        1 MOL      0.444825
    192 H95        -3.6530    1.8310   -1.4440 ho        1 MOL      0.444825
@<TRIPOS>BOND
     1    1    2 1   
     2    1    4 1   
     3    1    5 1   
     4    1    6 1   
     5    2    3 2   
     6    2    7 1   
     7    7    8 1   
     8    7   15 1   
     9    8    9 1   
    10    8   11 1   
    11    8   16 1   
    12    9   10 2   
    13    9   19 1   
    14   11   12 1   
    15   11   17 1   
    16   11   18 1   
    17   12   13 1   
    18   12   14 1   
    19   19   20 1   
    20   19   28 1   
    21   20   21 1   
    22   20   23 1   
    23   20   29 1   
    24   21   22 2   
    25   21   41 1   
    26   23   24 1   
    27   23   30 1   
    28   23   31 1   
    29   24   25 1   
    30   24   32 1   
    31   24   33 1   
    32   25   26 1   
    33   25   34 1   
    34   25   35 1   
    35   26   27 1   
    36   26   36 1   
    37   26   37 1   
    38   27   38 1   
    39   27   39 1   
    40   27   40 1   
    41   41   42 1   
    42   41   49 1   
    43   42   43 1   
    44   42   45 1   
    45   42   50 1   
    46   43   44 2   
    47   43   53 1   
    48   45   46 1   
    49   45   51 1   
    50   45   52 1   
    51   46   47 1   
    52   46   48 1   
    53   53   54 1   
    54   53   57 1   
    55   54   55 1   
    56   54   58 1   
    57   54   59 1   
    58   55   56 2   
    59   55   60 1   
    60   60   61 1   
    61   60   68 1   
    62   61   62 1   
    63   61   64 1   
    64   61   69 1   
    65   62   63 2   
    66   62   72 1   
    67   64   65 1   
    68   64   70 1   
    69   64   71 1   
    70   65   66 1   
    71   65   67 1   
    72   72   73 1   
    73   72   76 1   
    74   73   74 1   
    75   73   77 1   
    76   73   78 1   
    77   74   75 2   
    78   74   79 1   
    79   79   80 1   
    80   79   86 1   
    81   80   81 1   
    82   80   83 1   
    83   80   87 1   
    84   81   82 2   
    85   81   93 1   
    86   83   84 1   
    87   83   85 1   
    88   83   88 1   
    89   84   90 1   
    90   84   91 1   
    91   84   92 1   
    92   85   89 1   
    93   93   94 1   
    94   93  101 1   
    95   94   95 1   
    96   94   97 1   
    97   94  102 1   
    98   95   96 2   
    99   95  112 1   
   100   97   98 1   
   101   97   99 1   
   102   97  103 1   
   103   98  100 1   
   104   98  104 1   
   105   98  105 1   
   106   99  106 1   
   107   99  107 1   
   108   99  108 1   
   109  100  109 1   
   110  100  110 1   
   111  100  111 1   
   112  112  113 1   
   113  112  119 1   
   114  113  114 1   
   115  113  116 1   
   116  113  120 1   
   117  114  115 2   
   118  114  126 1   
   119  116  117 1   
   120  116  118 1   
   121  116  121 1   
   122  117  123 1   
   123  117  124 1   
   124  117  125 1   
   125  118  122 1   
   126  126  127 1   
   127  126  133 1   
   128  127  128 1   
   129  127  130 1   
   130  127  134 1   
   131  128  129 2   
   132  128  140 1   
   133  130  131 1   
   134  130  132 1   
   135  130  135 1   
   136  131  137 1   
   137  131  138 1   
   138  131  139 1   
   139  132  136 1   
   140  140  141 1   
   141  140  149 1   
   142  141  142 1   
   143  141  144 1   
   144  141  150 1   
   145  142  143 2   
   146  142  162 1   
   147  144  145 1   
   148  144  151 1   
   149  144  152 1   
   150  145  146 1   
   151  145  153 1   
   152  145  154 1   
   153  146  147 1   
   154  146  155 1   
   155  146  156 1   
   156  147  148 1   
   157  147  157 1   
   158  147  158 1   
   159  148  159 1   
   160  148  160 1   
   161  148  161 1   
   162  162  163 1   
   163  162  171 1   
   164  163  164 1   
   165  163  166 1   
   166  163  172 1   
   167  164  165 2   
   168  164  177 1   
   169  166  167 1   
   170  166  173 1   
   171  166  174 1   
   172  167  168 1   
   173  167  175 1   
   174  167  176 1   
   175  168  169 1   
   176  168  170 1   
   177  177  178 1   
   178  177  182 1   
   179  178  179 1   
   180  178  180 1   
   181  178  181 1   
   182  184  185 1   
   183  184  186 1   
   184  187  188 1   
   185  187  189 1   
   186  190  191 1   
   187  190  192 1   
@<TRIPOS>SUBSTRUCTURE
     1 MOL         1 TEMP              0 ****  ****    0 ROOT
