@<TRIPOS>MOLECULE
MOL
  175   173     1     0     0
SMALL
resp


@<TRIPOS>ATOM
      1 C1         -6.8490    7.4720    2.0020 c3        1 MOL     -0.318614
      2 C2         -7.8670    6.9860    0.9170 c         1 MOL      0.601276
      3 O1         -8.2900    7.6980   -0.0150 o         1 MOL     -0.564452
      4 H1         -6.0890    6.7070    2.1550 hc        1 MOL      0.077271
      5 H2         -6.3730    8.3940    1.6680 hc        1 MOL      0.077271
      6 H3         -7.3750    7.6540    2.9400 hc        1 MOL      0.077271
      7 N1         -8.2520    5.7140    1.0480 n         1 MOL     -0.417471
      8 C3         -9.2460    5.0450    0.1500 c3        1 MOL      0.118665
      9 C4         -8.4730    3.9430   -0.6720 c         1 MOL      0.561351
     10 O2         -8.9670    3.4460   -1.6920 o         1 MOL     -0.534001
     11 C5        -10.5140    4.5530    0.9470 c3        1 MOL     -0.168934
     12 C6        -11.6710    4.4650    0.0110 c         1 MOL      0.692330
     13 O3        -12.1670    5.5170   -0.4350 o         1 MOL     -0.726202
     14 O4        -12.1400    3.3180   -0.2260 o         1 MOL     -0.726202
     15 H4         -8.0010    5.2730    1.9170 hn        1 MOL      0.247021
     16 H5         -9.6050    5.7630   -0.6000 h1        1 MOL      0.087748
     17 H6        -10.6930    5.3450    1.6770 hc        1 MOL      0.007710
     18 H7        -10.2960    3.6290    1.4710 hc        1 MOL      0.007710
     19 N2         -7.1750    3.7200   -0.3230 n         1 MOL     -0.626572
     20 C7         -6.2170    2.8270   -0.9610 c3        1 MOL      0.478812
     21 C8         -5.2860    2.2300    0.0830 c         1 MOL      0.341304
     22 O5         -4.8930    2.9280    1.0530 o         1 MOL     -0.504857
     23 C9         -5.4890    3.6000   -2.0540 c3        1 MOL     -0.260744
     24 H8         -6.7780    4.3030    0.4010 hn        1 MOL      0.242174
     25 H9         -6.8050    1.9880   -1.3470 h1        1 MOL     -0.036019
     26 H10        -6.1870    4.1240   -2.7040 hc        1 MOL      0.072257
     27 H11        -4.7650    4.3140   -1.6760 hc        1 MOL      0.072257
     28 H12        -5.0120    2.8710   -2.7190 hc        1 MOL      0.072257
     29 N3         -4.8510    0.9650   -0.1040 n         1 MOL     -0.331833
     30 C10        -5.0500    0.0030   -1.2740 c3        1 MOL     -0.083195
     31 C11        -5.2050   -1.4470   -0.7860 c         1 MOL      0.445091
     32 O6         -4.4330   -1.8640    0.0460 o         1 MOL     -0.511882
     33 C12        -3.9430    0.0200   -2.3880 c3        1 MOL     -0.075500
     34 C13        -2.5630   -0.3030   -1.9030 c         1 MOL      0.802929
     35 O7         -1.9570   -1.3600   -2.2350 o         1 MOL     -0.759733
     36 O8         -1.9410    0.5360   -1.2080 o         1 MOL     -0.759733
     37 H13        -4.3760    0.5630    0.6950 hn        1 MOL      0.279445
     38 H14        -5.9280    0.3740   -1.8000 h1        1 MOL      0.088693
     39 H15        -3.7930    0.9920   -2.8620 hc        1 MOL      0.015867
     40 H16        -4.2050   -0.5730   -3.2610 hc        1 MOL      0.015867
     41 N4         -6.1370   -2.1930   -1.4230 n         1 MOL     -0.390051
     42 C14        -6.4480   -3.6440   -1.0950 c3        1 MOL     -0.077885
     43 C15        -6.2970   -4.5910   -2.2630 c         1 MOL      0.574944
     44 O9         -7.2060   -4.8980   -3.0550 o         1 MOL     -0.540992
     45 H17        -6.6900   -1.6360   -2.0510 hn        1 MOL      0.304945
     46 H18        -7.4390   -3.8020   -0.6720 h1        1 MOL      0.112997
     47 H19        -5.8840   -3.9360   -0.2120 h1        1 MOL      0.112997
     48 N5         -5.0350   -5.1270   -2.4410 n         1 MOL     -0.543335
     49 C16        -3.8000   -4.8240   -1.7000 c3        1 MOL      0.109998
     50 C17        -3.9260   -5.2490   -0.2860 c         1 MOL      0.438797
     51 O10        -4.3180   -6.3800   -0.0690 o         1 MOL     -0.552936
     52 C18        -2.5610   -5.3950   -2.4340 c3        1 MOL      0.036285
     53 C19        -1.2630   -4.6300   -2.0380 c         1 MOL      0.423816
     54 N6         -0.1170   -4.8430   -2.6630 n         1 MOL     -0.554358
     55 O11        -1.2720   -3.8370   -1.0900 o         1 MOL     -0.590624
     56 H20        -4.9060   -5.6410   -3.2940 hn        1 MOL      0.302931
     57 H21        -3.5580   -3.7600   -1.7010 h1        1 MOL      0.025155
     58 H22        -2.5800   -5.3400   -3.5270 hc        1 MOL      0.029927
     59 H23        -2.4490   -6.4680   -2.2700 hc        1 MOL      0.029927
     60 H24        -0.1600   -5.5200   -3.4010 hn        1 MOL      0.295071
     61 H25         0.6500   -4.2060   -2.4750 hn        1 MOL      0.295071
     62 N7         -3.5760   -4.4150    0.6890 n         1 MOL     -0.279982
     63 C20        -3.6060   -4.8030    2.1320 c3        1 MOL     -0.355975
     64 C21        -2.2420   -5.2830    2.5940 c         1 MOL      0.672319
     65 O12        -2.1350   -5.6590    3.7340 o         1 MOL     -0.569955
     66 H26        -3.2000   -3.5110    0.4450 hn        1 MOL      0.371006
     67 H27        -4.3670   -5.5850    2.2300 h1        1 MOL      0.157738
     68 H28        -3.8550   -3.9340    2.7370 h1        1 MOL      0.157738
     69 N8         -1.1550   -5.3160    1.7590 n         1 MOL     -0.402163
     70 C22         0.2770   -5.4840    2.1900 c3        1 MOL     -0.002284
     71 C23         1.1140   -4.2340    1.9770 c         1 MOL      0.575910
     72 O13         0.6880   -3.4140    1.1340 o         1 MOL     -0.601130
     73 C24         1.0070   -6.6580    1.4770 c3        1 MOL      0.289557
     74 C25         0.4400   -8.0450    1.7460 c3        1 MOL     -0.406100
     75 O14         0.9450   -6.5490    0.0550 oh        1 MOL     -0.629717
     76 H29        -1.2490   -5.0200    0.8000 hn        1 MOL      0.336699
     77 H30         0.2540   -5.6640    3.2630 h1        1 MOL      0.056298
     78 H31         2.0230   -6.7140    1.8460 h1        1 MOL      0.001797
     79 H32         1.7670   -6.8020   -0.3600 ho        1 MOL      0.420013
     80 H33         0.2510   -8.3360    2.7860 hc        1 MOL      0.105720
     81 H34        -0.4830   -8.1310    1.1790 hc        1 MOL      0.105720
     82 H35         1.0700   -8.8000    1.2800 hc        1 MOL      0.105720
     83 N9          2.2510   -4.0660    2.6670 n         1 MOL     -0.383374
     84 C26         3.0740   -2.8880    2.4650 c3        1 MOL     -0.042761
     85 C27         4.1920   -3.1800    1.4350 c         1 MOL      0.357238
     86 O15         4.9590   -4.1760    1.6010 o         1 MOL     -0.558347
     87 C28         3.5990   -2.4810    3.9300 c3        1 MOL      0.080300
     88 C29         4.6920   -1.4360    3.9570 c3        1 MOL      0.173092
     89 C30         2.5020   -2.1880    4.9980 c3        1 MOL     -0.284439
     90 C31         4.4100    0.0650    3.8250 c3        1 MOL     -0.257165
     91 H36         2.5520   -4.7920    3.3010 hn        1 MOL      0.273065
     92 H37         2.4810   -2.0830    2.0380 h1        1 MOL      0.136208
     93 H38         4.0970   -3.3820    4.3130 hc        1 MOL     -0.005033
     94 H39         5.5350   -1.6330    3.2930 hc        1 MOL     -0.033881
     95 H40         5.0840   -1.5270    4.9730 hc        1 MOL     -0.033881
     96 H41         1.8740   -3.0540    5.2280 hc        1 MOL      0.076760
     97 H42         2.9360   -1.7920    5.9230 hc        1 MOL      0.076760
     98 H43         1.8150   -1.4010    4.6870 hc        1 MOL      0.076760
     99 H44         4.1920    0.3340    2.7960 hc        1 MOL      0.048002
    100 H45         3.6050    0.4250    4.4650 hc        1 MOL      0.048002
    101 H46         5.3690    0.4950    4.1150 hc        1 MOL      0.048002
    102 N10         4.3790   -2.3480    0.4470 n         1 MOL     -0.158330
    103 C32         5.2010   -2.5650   -0.7430 c3        1 MOL     -0.027874
    104 C33         5.9780   -1.2900   -1.2890 c         1 MOL      0.450676
    105 O16         6.4940   -1.3560   -2.3970 o         1 MOL     -0.512130
    106 C34         4.3220   -3.2140   -1.8500 c3        1 MOL     -0.089178
    107 C35         3.0440   -2.3710   -2.2780 c         1 MOL      0.643584
    108 O17         3.1950   -1.4030   -3.1380 o         1 MOL     -0.668204
    109 O18         1.8740   -2.6130   -1.8570 o         1 MOL     -0.668204
    110 H47         3.6060   -1.7020    0.3860 hn        1 MOL      0.186868
    111 H48         5.9350   -3.3060   -0.4250 h1        1 MOL      0.086991
    112 H49         3.9940   -4.2030   -1.5460 hc        1 MOL      0.039347
    113 H50         4.9090   -3.3490   -2.7600 hc        1 MOL      0.039347
    114 N11         6.1130   -0.1260   -0.6050 n         1 MOL     -0.424422
    115 C36         6.7180    1.1360   -1.0840 c3        1 MOL      0.277089
    116 C37         6.2650    2.3800   -0.3420 c         1 MOL      0.409877
    117 O19         5.9150    2.2690    0.8290 o         1 MOL     -0.508455
    118 C38         8.2420    1.0300   -0.9850 c3        1 MOL     -0.338455
    119 C39         9.1720    2.0490   -1.6880 ca        1 MOL      0.161986
    120 C40         9.5250    3.1880   -0.9820 ca        1 MOL     -0.166319
    121 C41         9.7600    1.7750   -2.9480 ca        1 MOL     -0.166319
    122 C42        10.4160    4.1150   -1.5850 ca        1 MOL     -0.108921
    123 C43        10.6560    2.6780   -3.5330 ca        1 MOL     -0.108921
    124 C44        10.8780    3.9180   -2.8710 ca        1 MOL     -0.143445
    125 H51         5.7150   -0.2360    0.3160 hn        1 MOL      0.257541
    126 H52         6.3290    1.1860   -2.0990 h1        1 MOL      0.049054
    127 H53         8.7080    0.0680   -1.1850 hc        1 MOL      0.107595
    128 H54         8.4260    1.1340    0.0850 hc        1 MOL      0.107595
    129 H55         9.0620    3.3520   -0.0150 ha        1 MOL      0.129950
    130 H56         9.5010    0.8760   -3.4870 ha        1 MOL      0.129950
    131 H57        10.6760    4.9500   -0.9620 ha        1 MOL      0.111613
    132 H58        10.9530    2.4880   -4.5570 ha        1 MOL      0.111613
    133 H59        11.4220    4.7260   -3.3340 ha        1 MOL      0.107080
    134 N12         6.2400    3.5230   -1.0300 n         1 MOL     -0.224684
    135 C45         6.0140    4.9070   -0.4200 c3        1 MOL     -0.035072
    136 C46         4.7970    5.1300    0.5200 c         1 MOL      0.420733
    137 O20         4.6200    6.1600    1.2210 o         1 MOL     -0.554163
    138 C47         5.8450    5.7900   -1.6430 c3        1 MOL     -0.086278
    139 C48         6.8190    5.1920   -2.6360 c3        1 MOL     -0.107006
    140 C49         6.4500    3.7220   -2.4830 c3        1 MOL     -0.163451
    141 H60         6.9740    5.0740    0.0590 h1        1 MOL      0.096470
    142 H61         4.8080    5.9320   -1.9700 hc        1 MOL      0.077137
    143 H62         6.1840    6.7740   -1.3180 hc        1 MOL      0.077137
    144 H63         6.5740    5.4740   -3.6640 hc        1 MOL      0.068039
    145 H64         7.8670    5.3760   -2.3960 hc        1 MOL      0.068039
    146 H65         5.4880    3.5350   -2.9660 h1        1 MOL      0.122271
    147 H66         7.2660    3.1250   -2.9080 h1        1 MOL      0.122271
    148 N13         3.8390    4.2310    0.5820 n         1 MOL     -0.191290
    149 C50         2.5370    4.3170    1.3430 c3        1 MOL     -0.367455
    150 C51         2.5790    4.6460    2.8370 c         1 MOL      0.644544
    151 O21         1.5780    5.1040    3.4230 o         1 MOL     -0.550414
    152 C52         1.7050    3.0310    1.0570 c3        1 MOL      0.021064
    153 C53         2.2230    1.6980    1.6680 c3        1 MOL     -0.230232
    154 C54         1.6030    0.4560    1.0140 c         1 MOL      0.764937
    155 O22         0.4010    0.1770    1.3000 o         1 MOL     -0.740558
    156 O23         2.2290   -0.3400    0.3560 o         1 MOL     -0.740558
    157 H67         4.0100    3.3640    0.0840 hn        1 MOL      0.241996
    158 H68         2.0040    5.1500    0.8930 h1        1 MOL      0.183291
    159 H69         1.8190    2.8460   -0.0130 hc        1 MOL      0.061677
    160 H70         0.6660    3.2370    1.3180 hc        1 MOL      0.061677
    161 H71         2.1030    1.8210    2.7430 hc        1 MOL      0.077058
    162 H72         3.2670    1.6070    1.3740 hc        1 MOL      0.077058
    163 N14         3.7090    4.4680    3.5330 n         1 MOL     -0.234816
    164 C55         3.7940    4.6580    4.9790 c3        1 MOL     -0.249803
    165 H73         4.8360    4.7930    5.2670 h1        1 MOL      0.103068
    166 H74         3.2220    5.5410    5.2640 h1        1 MOL      0.103068
    167 H75         3.3880    3.7830    5.4850 h1        1 MOL      0.103068
    168 H76         4.5640    4.1870    3.0780 hn        1 MOL      0.234671
    169 Ca1        -0.0370   -1.4950   -0.5960 Ca        1 MOL      1.718467
    170 O24        -2.0500   -1.8070    1.1220 oh        1 MOL     -0.890393
    171 H77        -2.9650   -1.6580    0.8760 ho        1 MOL      0.416673
    172 H78        -1.9300   -1.2890    1.9160 ho        1 MOL      0.416673
    173 O25         0.9400   -0.1300   -2.7400 oh        1 MOL     -0.890393
    174 H79         1.8030   -0.5210   -2.6040 ho        1 MOL      0.416673
    175 H80         0.9140    0.0650   -3.6770 ho        1 MOL      0.416673
@<TRIPOS>BOND
     1    1    2 1   
     2    1    4 1   
     3    1    5 1   
     4    1    6 1   
     5    2    3 2   
     6    2    7 1   
     7    7    8 1   
     8    7   15 1   
     9    8    9 1   
    10    8   11 1   
    11    8   16 1   
    12    9   10 2   
    13    9   19 1   
    14   11   12 1   
    15   11   17 1   
    16   11   18 1   
    17   12   13 1   
    18   12   14 1   
    19   19   20 1   
    20   19   24 1   
    21   20   21 1   
    22   20   23 1   
    23   20   25 1   
    24   21   22 2   
    25   21   29 1   
    26   23   26 1   
    27   23   27 1   
    28   23   28 1   
    29   29   30 1   
    30   29   37 1   
    31   30   31 1   
    32   30   33 1   
    33   30   38 1   
    34   31   32 2   
    35   31   41 1   
    36   33   34 1   
    37   33   39 1   
    38   33   40 1   
    39   34   35 1   
    40   34   36 1   
    41   41   42 1   
    42   41   45 1   
    43   42   43 1   
    44   42   46 1   
    45   42   47 1   
    46   43   44 2   
    47   43   48 1   
    48   48   49 1   
    49   48   56 1   
    50   49   50 1   
    51   49   52 1   
    52   49   57 1   
    53   50   51 2   
    54   50   62 1   
    55   52   53 1   
    56   52   58 1   
    57   52   59 1   
    58   53   54 1   
    59   53   55 2   
    60   54   60 1   
    61   54   61 1   
    62   62   63 1   
    63   62   66 1   
    64   63   64 1   
    65   63   67 1   
    66   63   68 1   
    67   64   65 2   
    68   64   69 1   
    69   69   70 1   
    70   69   76 1   
    71   70   71 1   
    72   70   73 1   
    73   70   77 1   
    74   71   72 2   
    75   71   83 1   
    76   73   74 1   
    77   73   75 1   
    78   73   78 1   
    79   74   80 1   
    80   74   81 1   
    81   74   82 1   
    82   75   79 1   
    83   83   84 1   
    84   83   91 1   
    85   84   85 1   
    86   84   87 1   
    87   84   92 1   
    88   85   86 2   
    89   85  102 1   
    90   87   88 1   
    91   87   89 1   
    92   87   93 1   
    93   88   90 1   
    94   88   94 1   
    95   88   95 1   
    96   89   96 1   
    97   89   97 1   
    98   89   98 1   
    99   90   99 1   
   100   90  100 1   
   101   90  101 1   
   102  102  103 1   
   103  102  110 1   
   104  103  104 1   
   105  103  106 1   
   106  103  111 1   
   107  104  105 2   
   108  104  114 1   
   109  106  107 1   
   110  106  112 1   
   111  106  113 1   
   112  107  108 1   
   113  107  109 1   
   114  114  115 1   
   115  114  125 1   
   116  115  116 1   
   117  115  118 1   
   118  115  126 1   
   119  116  117 2   
   120  116  134 1   
   121  118  119 1   
   122  118  127 1   
   123  118  128 1   
   124  119  120 ar  
   125  119  121 ar  
   126  120  122 ar  
   127  120  129 1   
   128  121  123 ar  
   129  121  130 1   
   130  122  124 ar  
   131  122  131 1   
   132  123  124 ar  
   133  123  132 1   
   134  124  133 1   
   135  134  135 1   
   136  134  140 1   
   137  135  136 1   
   138  135  138 1   
   139  135  141 1   
   140  136  137 2   
   141  136  148 1   
   142  138  139 1   
   143  138  142 1   
   144  138  143 1   
   145  139  140 1   
   146  139  144 1   
   147  139  145 1   
   148  140  146 1   
   149  140  147 1   
   150  148  149 1   
   151  148  157 1   
   152  149  150 1   
   153  149  152 1   
   154  149  158 1   
   155  150  151 2   
   156  150  163 1   
   157  152  153 1   
   158  152  159 1   
   159  152  160 1   
   160  153  154 1   
   161  153  161 1   
   162  153  162 1   
   163  154  155 1   
   164  154  156 1   
   165  163  164 1   
   166  163  168 1   
   167  164  165 1   
   168  164  166 1   
   169  164  167 1   
   170  170  171 1   
   171  170  172 1   
   172  173  174 1   
   173  173  175 1   
@<TRIPOS>SUBSTRUCTURE
     1 MOL         1 TEMP              0 ****  ****    0 ROOT
