@<TRIPOS>MOLECULE
MOL
  185   180     1     0     0
SMALL
resp


@<TRIPOS>ATOM
      1 C1         -6.0370    0.7970   -3.4850 c3        1 MOL     -0.505265
      2 C2         -6.7140    0.9730   -2.0900 c         1 MOL      0.639236
      3 O1         -6.0630    0.8310   -1.0900 o         1 MOL     -0.505190
      4 H1         -6.6680    0.1710   -4.1170 hc        1 MOL      0.134505
      5 H2         -5.9090    1.7720   -3.9520 hc        1 MOL      0.134505
      6 H3         -5.0640    0.3220   -3.3600 hc        1 MOL      0.134505
      7 N1         -7.9750    1.2860   -1.9940 n         1 MOL     -0.574718
      8 C3         -8.7890    1.4680   -0.7350 c3        1 MOL     -0.093454
      9 C4         -8.7690    0.2680    0.1890 c         1 MOL      0.540430
     10 O2         -9.2610    0.3950    1.3350 o         1 MOL     -0.530356
     11 C5         -8.4470    2.8500   -0.0320 c3        1 MOL     -0.130657
     12 C6         -8.4610    4.0110   -0.9240 c         1 MOL      0.773037
     13 O3         -7.5370    4.8440   -0.9290 o         1 MOL     -0.690403
     14 O4         -9.5740    4.3030   -1.4440 o         1 MOL     -0.690403
     15 H4         -8.5410    1.2680   -2.8390 hn        1 MOL      0.329142
     16 H5         -9.8170    1.4890   -1.1020 h1        1 MOL      0.090765
     17 H6         -7.4870    2.6320    0.4380 hc        1 MOL      0.070245
     18 H7         -9.1120    3.0140    0.8120 hc        1 MOL      0.070245
     19 N2         -8.1290   -0.8460   -0.2500 n         1 MOL     -0.205834
     20 C7         -7.9540   -2.1100    0.4740 c3        1 MOL     -0.056612
     21 C8         -6.5170   -2.5760    0.5810 c         1 MOL      0.537491
     22 O5         -6.2350   -3.6250    1.1000 o         1 MOL     -0.531687
     23 C9         -8.9470   -3.1990   -0.0090 c3        1 MOL     -0.158702
     24 C10       -10.3750   -2.7790    0.0100 c3        1 MOL      0.383732
     25 C11       -11.3420   -3.7590   -0.5970 c3        1 MOL     -0.455936
     26 C12       -11.7280   -3.4900   -2.0970 c3        1 MOL     -0.079892
     27 N3        -10.6440   -3.9490   -3.0130 n4        1 MOL     -0.256850
     28 H8         -8.0030   -0.8540   -1.2470 hn        1 MOL      0.167714
     29 H9         -8.0750   -1.9140    1.5390 h1        1 MOL      0.148784
     30 H10        -8.9220   -4.0920    0.6080 hc        1 MOL      0.025043
     31 H11        -8.7580   -3.5370   -1.0240 hc        1 MOL      0.025043
     32 H12       -10.4960   -1.8100   -0.4800 hc        1 MOL     -0.057642
     33 H13       -10.6290   -2.5270    1.0390 hc        1 MOL     -0.057642
     34 H14       -12.2400   -3.6290    0.0120 hc        1 MOL      0.177935
     35 H15       -11.0300   -4.7650   -0.3280 hc        1 MOL      0.177935
     36 H16       -11.8770   -2.4450   -2.3670 hx        1 MOL      0.136176
     37 H17       -12.6620   -4.0010   -2.3600 hx        1 MOL      0.136176
     38 H18       -11.1090   -4.0290   -3.9090 hn        1 MOL      0.287684
     39 H19        -9.8850   -3.3040   -3.1940 hn        1 MOL      0.287684
     40 H20       -10.2360   -4.8620   -2.8410 hn        1 MOL      0.287684
     41 N4         -5.5980   -1.7680    0.0990 n         1 MOL     -0.413389
     42 C13        -4.1760   -1.9580    0.2800 c3        1 MOL     -0.095142
     43 C14        -3.7740   -2.4110    1.7090 c         1 MOL      0.582166
     44 O6         -4.4150   -2.0250    2.6970 o         1 MOL     -0.501293
     45 C15        -3.4800   -0.6210   -0.0530 c3        1 MOL     -0.157888
     46 C16        -2.0540   -0.8330   -0.1860 c         1 MOL      0.804522
     47 O7         -1.3020   -0.6580    0.8080 o         1 MOL     -0.775224
     48 O8         -1.5660   -1.2400   -1.2520 o         1 MOL     -0.775224
     49 H21        -5.9690   -0.9390   -0.3380 hn        1 MOL      0.241419
     50 H22        -3.8510   -2.7370   -0.4080 h1        1 MOL      0.073663
     51 H23        -3.7340    0.1580    0.6610 hc        1 MOL      0.113561
     52 H24        -3.7410   -0.2620   -1.0470 hc        1 MOL      0.113561
     53 N5         -2.7140   -3.2190    1.8580 n         1 MOL     -0.420290
     54 C17        -2.2870   -3.8360    3.1360 c3        1 MOL     -0.097254
     55 C18        -1.3160   -3.0550    4.0160 c         1 MOL      0.517824
     56 O9         -0.8530   -3.5040    5.0980 o         1 MOL     -0.543836
     57 H25        -2.0450   -3.3490    1.1140 hn        1 MOL      0.289282
     58 H26        -1.8390   -4.7430    2.7580 h1        1 MOL      0.100740
     59 H27        -3.1500   -4.1590    3.7090 h1        1 MOL      0.100740
     60 N6         -0.9470   -1.8590    3.5020 n         1 MOL     -0.215867
     61 C19        -0.1570   -0.8610    4.3070 c3        1 MOL     -0.119489
     62 C20        -0.4540    0.5740    4.0810 c         1 MOL      0.538704
     63 O10         0.2010    1.4630    4.6740 o         1 MOL     -0.534441
     64 C21         1.3670   -1.3170    4.3830 c3        1 MOL     -0.215057
     65 C22         2.0770   -1.4550    3.0730 c         1 MOL      0.723990
     66 N7          3.2530   -2.0060    3.1630 n         1 MOL     -0.774668
     67 O11         1.6050   -1.1140    2.0240 o         1 MOL     -0.621145
     68 H28        -1.2970   -1.5330    2.6220 hn        1 MOL      0.143929
     69 H29        -0.5390   -1.0310    5.3210 h1        1 MOL      0.133656
     70 H30         1.4020   -2.2730    4.9100 hc        1 MOL      0.090994
     71 H31         1.9010   -0.5890    4.9840 hc        1 MOL      0.090994
     72 H32         3.6020   -2.2660    4.0800 hn        1 MOL      0.354169
     73 H33         3.8120   -2.0310    2.3200 hn        1 MOL      0.354169
     74 N8         -1.4350    0.9390    3.2140 n         1 MOL     -0.353241
     75 C23        -1.9540    2.2700    3.0640 c3        1 MOL     -0.076416
     76 C24        -1.3190    3.0920    1.9620 c         1 MOL      0.401727
     77 O12        -1.5090    4.2800    1.8840 o         1 MOL     -0.496017
     78 H34        -1.7700    0.2190    2.5860 hn        1 MOL      0.205383
     79 H35        -1.8980    2.8720    3.9670 h1        1 MOL      0.108941
     80 H36        -3.0300    2.2310    2.8700 h1        1 MOL      0.108941
     81 N9         -0.6190    2.4920    1.0810 n         1 MOL     -0.135685
     82 C25         0.2260    3.0330    0.0420 c3        1 MOL      0.064439
     83 C26         1.5050    2.2010   -0.2300 c         1 MOL      0.325933
     84 O13         1.6210    0.9790   -0.0380 o         1 MOL     -0.451068
     85 C27        -0.5320    3.3580   -1.3340 c3        1 MOL      0.262433
     86 C28        -1.8360    4.1260   -1.1660 ca        1 MOL     -0.213433
     87 C29        -1.8570    5.5570   -1.2270 ca        1 MOL     -0.128207
     88 C30        -3.0240    3.4140   -0.8820 ca        1 MOL     -0.128207
     89 C31        -3.0450    6.2570   -1.1410 ca        1 MOL     -0.155676
     90 C32        -4.2190    4.1410   -0.8190 ca        1 MOL     -0.155676
     91 C33        -4.2770    5.5550   -0.9940 ca        1 MOL      0.264112
     92 O14        -5.4150    6.3170   -0.9300 oh        1 MOL     -0.496151
     93 H37        -0.6920    1.4840    1.0340 hn        1 MOL      0.117263
     94 H38         0.6050    3.9770    0.4430 h1        1 MOL      0.030248
     95 H39        -0.7300    2.4230   -1.8640 hc        1 MOL     -0.050980
     96 H40         0.1170    3.8770   -2.0430 hc        1 MOL     -0.050980
     97 H41        -0.8960    6.0490   -1.3300 ha        1 MOL      0.094108
     98 H42        -3.1330    2.3530   -0.7230 ha        1 MOL      0.094108
     99 H43        -3.0180    7.3360   -1.1770 ha        1 MOL      0.116676
    100 H44        -5.1510    3.5980   -0.7110 ha        1 MOL      0.116676
    101 H45        -6.1560    5.7120   -0.8580 ho        1 MOL      0.402104
    102 N10         2.5020    2.9260   -0.7330 n         1 MOL     -0.350104
    103 C34         3.8770    2.3680   -1.0780 c3        1 MOL      0.038596
    104 C35         4.7620    2.1540    0.1130 c         1 MOL      0.390749
    105 O15         5.3100    1.0550    0.2850 o         1 MOL     -0.376836
    106 C36         4.5350    3.1770   -2.2070 c3        1 MOL      0.157082
    107 C37         3.5860    3.6360   -3.3520 c3        1 MOL     -0.009428
    108 C38         5.7820    2.4520   -2.7560 c3        1 MOL     -0.154739
    109 C39         3.0890    2.4810   -4.2650 c3        1 MOL     -0.175707
    110 H46         2.3370    3.8860   -0.9740 hn        1 MOL      0.241479
    111 H47         3.7880    1.3690   -1.5020 h1        1 MOL      0.019605
    112 H48         4.9140    4.1100   -1.7980 hc        1 MOL     -0.073922
    113 H49         4.0570    4.3860   -3.9930 hc        1 MOL      0.024397
    114 H50         2.7160    4.1280   -2.9130 hc        1 MOL      0.024397
    115 H51         6.2280    3.0920   -3.5150 hc        1 MOL      0.037880
    116 H52         6.5620    2.2900   -2.0170 hc        1 MOL      0.037880
    117 H53         5.6500    1.4480   -3.1650 hc        1 MOL      0.037880
    118 H54         2.7050    1.6350   -3.6970 hc        1 MOL      0.057922
    119 H55         2.3510    2.8050   -5.0020 hc        1 MOL      0.057922
    120 H56         3.8990    2.0350   -4.8430 hc        1 MOL      0.057922
    121 N11         5.0300    3.1650    0.8910 n         1 MOL     -0.194244
    122 C40         6.0090    3.0460    2.0350 c3        1 MOL     -0.175243
    123 C41         7.4130    2.5550    1.6630 c         1 MOL      0.594975
    124 O16         8.0120    1.8550    2.4780 o         1 MOL     -0.567745
    125 C42         6.1560    4.3770    2.8370 c3        1 MOL     -0.138527
    126 O17         6.5080    5.4810    2.0000 oh        1 MOL     -0.529673
    127 H57         4.4250    3.9720    0.8850 hn        1 MOL      0.233616
    128 H58         5.6130    2.3230    2.7470 h1        1 MOL      0.128704
    129 H59         6.9660    4.2540    3.5580 h1        1 MOL      0.164037
    130 H60         5.1300    4.6170    3.1000 h1        1 MOL      0.164037
    131 H61         5.7120    5.7380    1.5300 ho        1 MOL      0.379076
    132 N12         7.8030    2.6780    0.4310 n         1 MOL     -0.154564
    133 C43         9.0570    2.0520   -0.1190 c3        1 MOL      0.251721
    134 C44         9.0900    0.5120   -0.0360 c         1 MOL      0.340737
    135 O18        10.1000   -0.1190   -0.2710 o         1 MOL     -0.527611
    136 C45        10.2660    2.7380    0.4220 c3        1 MOL     -0.305752
    137 H62         7.4880    3.5490    0.0260 hn        1 MOL      0.126697
    138 H63         9.0030    2.2270   -1.1900 h1        1 MOL      0.034690
    139 H64        11.0860    2.4560   -0.2350 hc        1 MOL      0.086580
    140 H65        10.1620    3.8120    0.2710 hc        1 MOL      0.086580
    141 H66        10.4980    2.5260    1.4640 hc        1 MOL      0.086580
    142 N13         7.9130   -0.1230    0.1740 n         1 MOL      0.046020
    143 C46         7.7500   -1.5420    0.2200 c3        1 MOL      0.190613
    144 C47         7.0020   -2.1660   -0.9550 c         1 MOL      0.293771
    145 O19         6.4590   -1.4870   -1.7250 o         1 MOL     -0.384590
    146 C48         7.1290   -1.9120    1.5640 c3        1 MOL     -0.175325
    147 H67         7.0820    0.4470    0.1320 hn        1 MOL     -0.190003
    148 H68         8.7540   -1.9440    0.3780 h1        1 MOL      0.020837
    149 H69         7.7020   -1.2890    2.2620 hc        1 MOL      0.057451
    150 H70         6.0540   -1.7150    1.5660 hc        1 MOL      0.057451
    151 H71         7.2980   -2.9440    1.8620 hc        1 MOL      0.057451
    152 N14         7.1400   -3.5280   -1.0090 n         1 MOL     -0.612612
    153 C49         6.4320   -4.3830   -1.9360 c3        1 MOL      0.055267
    154 C50         6.8240   -4.2280   -3.4360 c         1 MOL      0.411123
    155 O20         6.0680   -4.7100   -4.3410 o         1 MOL     -0.500020
    156 C51         4.9560   -4.4660   -1.6100 c3        1 MOL      0.250234
    157 C52         4.5790   -4.4470   -0.0940 c3        1 MOL     -0.270429
    158 C53         3.0710   -4.6060    0.1250 c         1 MOL      0.670648
    159 O21         2.3810   -3.6010    0.3540 o         1 MOL     -0.674394
    160 O22         2.5370   -5.7620    0.0660 o         1 MOL     -0.674394
    161 H72         7.7430   -3.8510   -0.2630 hn        1 MOL      0.344519
    162 H73         6.8370   -5.3610   -1.6860 h1        1 MOL      0.088103
    163 H74         4.6720   -5.3930   -2.1100 hc        1 MOL     -0.031639
    164 H75         4.4480   -3.6720   -2.1650 hc        1 MOL     -0.031639
    165 H76         4.9980   -3.5470    0.3670 hc        1 MOL      0.052901
    166 H77         5.1680   -5.2480    0.3530 hc        1 MOL      0.052901
    167 N15         7.8860   -3.5110   -3.7660 n         1 MOL     -0.394930
    168 C54         7.9110   -2.7280   -5.0210 c3        1 MOL     -0.014573
    169 H78         7.5180   -3.3370   -5.8360 h1        1 MOL      0.067347
    170 H79         7.2950   -1.8360   -4.9060 h1        1 MOL      0.067347
    171 H80         8.9360   -2.4360   -5.2470 h1        1 MOL      0.067347
    172 H81         8.3830   -3.1480   -2.9660 hn        1 MOL      0.292478
    173 Ca1         0.9630   -1.5380   -0.3640 Ca        1 MOL      1.786833
    174 O23         3.5080   -1.0990   -0.6440 oh        1 MOL     -0.892314
    175 H82         4.0740   -1.6900   -1.1420 ho        1 MOL      0.427729
    176 H83         4.0750   -0.3780   -0.3810 ho        1 MOL      0.427729
    177 O24         0.5820   -3.0730   -2.4270 oh        1 MOL     -0.892314
    178 H84        -0.1480   -2.7960   -2.9740 ho        1 MOL      0.427729
    179 H85         1.0140   -3.7610   -2.9280 ho        1 MOL      0.427729
    180 O25        -0.4180   -3.7350    0.2330 oh        1 MOL     -0.892314
    181 H86        -1.0600   -4.3610   -0.0830 ho        1 MOL      0.427729
    182 H87         0.3910   -4.2270    0.3160 ho        1 MOL      0.427729
    183 O26         0.3010   -0.0390   -2.7160 oh        1 MOL     -0.892314
    184 H88        -0.5620   -0.4250   -2.5660 ho        1 MOL      0.427729
    185 H89         0.2180    0.4030   -3.5530 ho        1 MOL      0.427729
@<TRIPOS>BOND
     1    1    2 1   
     2    1    4 1   
     3    1    5 1   
     4    1    6 1   
     5    2    3 2   
     6    2    7 1   
     7    7    8 1   
     8    7   15 1   
     9    8    9 1   
    10    8   11 1   
    11    8   16 1   
    12    9   10 2   
    13    9   19 1   
    14   11   12 1   
    15   11   17 1   
    16   11   18 1   
    17   12   13 1   
    18   12   14 1   
    19   19   20 1   
    20   19   28 1   
    21   20   21 1   
    22   20   23 1   
    23   20   29 1   
    24   21   22 2   
    25   21   41 1   
    26   23   24 1   
    27   23   30 1   
    28   23   31 1   
    29   24   25 1   
    30   24   32 1   
    31   24   33 1   
    32   25   26 1   
    33   25   34 1   
    34   25   35 1   
    35   26   27 1   
    36   26   36 1   
    37   26   37 1   
    38   27   38 1   
    39   27   39 1   
    40   27   40 1   
    41   41   42 1   
    42   41   49 1   
    43   42   43 1   
    44   42   45 1   
    45   42   50 1   
    46   43   44 2   
    47   43   53 1   
    48   45   46 1   
    49   45   51 1   
    50   45   52 1   
    51   46   47 1   
    52   46   48 1   
    53   53   54 1   
    54   53   57 1   
    55   54   55 1   
    56   54   58 1   
    57   54   59 1   
    58   55   56 2   
    59   55   60 1   
    60   60   61 1   
    61   60   68 1   
    62   61   62 1   
    63   61   64 1   
    64   61   69 1   
    65   62   63 2   
    66   62   74 1   
    67   64   65 1   
    68   64   70 1   
    69   64   71 1   
    70   65   66 1   
    71   65   67 2   
    72   66   72 1   
    73   66   73 1   
    74   74   75 1   
    75   74   78 1   
    76   75   76 1   
    77   75   79 1   
    78   75   80 1   
    79   76   77 2   
    80   76   81 1   
    81   81   82 1   
    82   81   93 1   
    83   82   83 1   
    84   82   85 1   
    85   82   94 1   
    86   83   84 2   
    87   83  102 1   
    88   85   86 1   
    89   85   95 1   
    90   85   96 1   
    91   86   87 ar  
    92   86   88 ar  
    93   87   89 ar  
    94   87   97 1   
    95   88   90 ar  
    96   88   98 1   
    97   89   91 ar  
    98   89   99 1   
    99   90   91 ar  
   100   90  100 1   
   101   91   92 1   
   102   92  101 1   
   103  102  103 1   
   104  102  110 1   
   105  103  104 1   
   106  103  106 1   
   107  103  111 1   
   108  104  105 2   
   109  104  121 1   
   110  106  107 1   
   111  106  108 1   
   112  106  112 1   
   113  107  109 1   
   114  107  113 1   
   115  107  114 1   
   116  108  115 1   
   117  108  116 1   
   118  108  117 1   
   119  109  118 1   
   120  109  119 1   
   121  109  120 1   
   122  121  122 1   
   123  121  127 1   
   124  122  123 1   
   125  122  125 1   
   126  122  128 1   
   127  123  124 2   
   128  123  132 1   
   129  125  126 1   
   130  125  129 1   
   131  125  130 1   
   132  126  131 1   
   133  132  133 1   
   134  132  137 1   
   135  133  134 1   
   136  133  136 1   
   137  133  138 1   
   138  134  135 2   
   139  134  142 1   
   140  136  139 1   
   141  136  140 1   
   142  136  141 1   
   143  142  143 1   
   144  142  147 1   
   145  143  144 1   
   146  143  146 1   
   147  143  148 1   
   148  144  145 2   
   149  144  152 1   
   150  146  149 1   
   151  146  150 1   
   152  146  151 1   
   153  152  153 1   
   154  152  161 1   
   155  153  154 1   
   156  153  156 1   
   157  153  162 1   
   158  154  155 2   
   159  154  167 1   
   160  156  157 1   
   161  156  163 1   
   162  156  164 1   
   163  157  158 1   
   164  157  165 1   
   165  157  166 1   
   166  158  159 1   
   167  158  160 1   
   168  167  168 1   
   169  167  172 1   
   170  168  169 1   
   171  168  170 1   
   172  168  171 1   
   173  174  175 1   
   174  174  176 1   
   175  177  178 1   
   176  177  179 1   
   177  180  181 1   
   178  180  182 1   
   179  183  184 1   
   180  183  185 1   
@<TRIPOS>SUBSTRUCTURE
     1 MOL         1 TEMP              0 ****  ****    0 ROOT
