@<TRIPOS>MOLECULE
MOL
  181   177     1     0     0
SMALL
resp


@<TRIPOS>ATOM
      1 C1          4.6730   -1.4410    3.6430 c3        1 MOL     -0.466718
      2 C2          5.8620   -0.5350    3.2720 c         1 MOL      0.712178
      3 O1          5.7230    0.5430    2.6320 o         1 MOL     -0.657584
      4 H1          3.8210   -0.8230    3.9300 hc        1 MOL      0.130413
      5 H2          4.4020   -2.0560    2.7840 hc        1 MOL      0.130413
      6 H3          4.9510   -2.0840    4.4780 hc        1 MOL      0.130413
      7 N1          7.0820   -0.9180    3.5390 n         1 MOL     -0.591219
      8 C3          8.3550   -0.2940    3.2020 c3        1 MOL      0.303181
      9 C4          8.4660   -0.2970    1.6740 c         1 MOL      0.453537
     10 O2          8.5760   -1.3550    1.0520 o         1 MOL     -0.486380
     11 C5          9.5970   -0.9260    3.9040 c3        1 MOL     -0.335553
     12 C6          9.6880   -2.4700    3.9650 c         1 MOL      0.719868
     13 O3         10.7760   -3.1360    3.9240 o         1 MOL     -0.702546
     14 O4          8.5880   -3.0460    4.0750 o         1 MOL     -0.702546
     15 H4          7.1650   -1.8140    3.9910 hn        1 MOL      0.324047
     16 H5          8.2790    0.7610    3.4890 h1        1 MOL     -0.016179
     17 H6          9.5590   -0.5330    4.9280 hc        1 MOL      0.052025
     18 H7         10.4900   -0.3840    3.6160 hc        1 MOL      0.052025
     19 N2          8.6770    0.8500    1.0010 n         1 MOL     -0.421609
     20 C7          8.9550    1.0410   -0.4370 c3        1 MOL      0.158124
     21 C8          7.7150    0.6400   -1.2740 c         1 MOL      0.257624
     22 O5          7.8870    0.4200   -2.4840 o         1 MOL     -0.500297
     23 C9          9.3430    2.5100   -0.6290 c3        1 MOL     -0.318201
     24 H8          8.7790    1.6890    1.5580 hn        1 MOL      0.224240
     25 H9          9.8550    0.4840   -0.7030 h1        1 MOL      0.093224
     26 H10         8.5570    3.2390   -0.4240 hc        1 MOL      0.084428
     27 H11        10.2340    2.6800   -0.0330 hc        1 MOL      0.084428
     28 H12         9.5570    2.7070   -1.6820 hc        1 MOL      0.084428
     29 N3          6.5260    0.5010   -0.6960 n         1 MOL     -0.044788
     30 C10         5.3380    0.0740   -1.3620 c3        1 MOL      0.065363
     31 C11         4.8780    1.0740   -2.4660 c         1 MOL      0.399235
     32 O6          4.4390    0.7150   -3.5670 o         1 MOL     -0.469610
     33 C12         5.4420   -1.4490   -1.7930 c3        1 MOL     -0.205052
     34 C13         3.9860   -2.0850   -1.9530 c         1 MOL      0.685552
     35 O7          3.9040   -3.1280   -2.5840 o         1 MOL     -0.722132
     36 O8          2.9590   -1.5870   -1.5050 o         1 MOL     -0.722132
     37 H13         6.3490    0.9100    0.2090 hn        1 MOL      0.155379
     38 H14         4.6090    0.1010   -0.5470 h1        1 MOL      0.035180
     39 H15         5.8370   -1.9410   -0.9050 hc        1 MOL      0.070214
     40 H16         5.9930   -1.5970   -2.7190 hc        1 MOL      0.070214
     41 N4          5.0890    2.3320   -2.1740 n         1 MOL     -0.136974
     42 C14         5.0910    3.4510   -3.1130 c3        1 MOL     -0.250647
     43 C15         3.8830    4.3110   -3.3990 c         1 MOL      0.665691
     44 O9          4.0290    5.3800   -4.0240 o         1 MOL     -0.581430
     45 H17         5.4280    2.5530   -1.2390 hn        1 MOL      0.188235
     46 H18         5.4340    3.0430   -4.0660 h1        1 MOL      0.103873
     47 H19         5.7700    4.1920   -2.6850 h1        1 MOL      0.103873
     48 N5          2.8040    3.9530   -2.7130 n         1 MOL     -0.486543
     49 C16         1.4270    4.4490   -2.9180 c3        1 MOL      0.313261
     50 C17         0.6520    5.0510   -1.6730 c         1 MOL      0.454699
     51 O10         0.8970    4.8060   -0.5000 o         1 MOL     -0.481788
     52 C18         0.5810    3.3150   -3.5650 c3        1 MOL     -0.283812
     53 C19         1.1940    2.7200   -4.7980 c         1 MOL      0.730390
     54 N6          1.4770    1.4790   -4.8920 n         1 MOL     -0.839221
     55 O11         1.3800    3.4960   -5.7150 o         1 MOL     -0.615335
     56 H20         2.8930    3.1400   -2.1280 hn        1 MOL      0.214381
     57 H21         1.5290    5.3220   -3.5580 h1        1 MOL     -0.012981
     58 H22        -0.3780    3.7550   -3.8310 hc        1 MOL      0.071129
     59 H23         0.4310    2.5620   -2.7940 hc        1 MOL      0.071129
     60 H24         1.2640    0.8930   -4.0900 hn        1 MOL      0.401864
     61 H25         1.8490    1.1740   -5.7860 hn        1 MOL      0.401864
     62 N7         -0.1710    6.0850   -1.9450 n         1 MOL     -0.426364
     63 C20        -0.8120    6.9070   -0.9240 c3        1 MOL     -0.219090
     64 C21        -2.1370    6.2370   -0.3270 c         1 MOL      0.496351
     65 O12        -2.8080    5.3710   -0.9210 o         1 MOL     -0.427589
     66 H26        -0.3320    6.4390   -2.8790 hn        1 MOL      0.316031
     67 H27        -1.0710    7.8750   -1.3490 h1        1 MOL      0.125882
     68 H28        -0.0710    6.9680   -0.1280 h1        1 MOL      0.125882
     69 N8         -2.4600    6.7220    0.8920 n         1 MOL     -0.161087
     70 C22        -3.6260    6.4160    1.5960 c3        1 MOL     -0.802665
     71 C23        -3.8690    5.0000    2.1640 c         1 MOL      0.856128
     72 O13        -5.0690    4.6280    2.3340 o         1 MOL     -0.608541
     73 C24        -3.8550    7.4940    2.6210 c3        1 MOL      0.577911
     74 C25        -2.9290    7.4320    3.8310 c3        1 MOL     -0.531420
     75 O14        -3.7670    8.8420    2.0520 oh        1 MOL     -0.669729
     76 H29        -1.8850    7.4590    1.2850 hn        1 MOL      0.180049
     77 H30        -4.3340    6.5990    0.7950 h1        1 MOL      0.282940
     78 H31        -4.8770    7.4650    3.0140 h1        1 MOL      0.054080
     79 H32        -2.8740    9.1580    1.9150 ho        1 MOL      0.404486
     80 H33        -1.8830    7.4660    3.5220 hc        1 MOL      0.135786
     81 H34        -3.2270    8.2960    4.4250 hc        1 MOL      0.135786
     82 H35        -3.1080    6.5120    4.3840 hc        1 MOL      0.135786
     83 N9         -2.8240    4.2240    2.3980 n         1 MOL     -0.401526
     84 C26        -2.9150    2.8240    2.7790 c3        1 MOL     -0.179921
     85 C27        -2.1840    1.8510    1.8400 c         1 MOL      0.700141
     86 O15        -1.0280    2.1590    1.5630 o         1 MOL     -0.518845
     87 C28        -2.4910    2.6230    4.2540 c3        1 MOL      0.178397
     88 C29        -3.5560    3.2670    5.1620 c3        1 MOL      0.127466
     89 C30        -2.3720    1.1440    4.5810 c3        1 MOL     -0.412482
     90 C31        -3.0540    3.5610    6.6210 c3        1 MOL     -0.109083
     91 H36        -1.8750    4.5610    2.3640 hn        1 MOL      0.291606
     92 H37        -3.9380    2.4400    2.7430 h1        1 MOL      0.054656
     93 H38        -1.5600    3.1900    4.3560 hc        1 MOL      0.025003
     94 H39        -4.4400    2.6480    5.3260 hc        1 MOL     -0.022970
     95 H40        -3.8840    4.2330    4.7680 hc        1 MOL     -0.022970
     96 H41        -3.2430    0.5780    4.2450 hc        1 MOL      0.110383
     97 H42        -1.4230    0.8830    4.1070 hc        1 MOL      0.110383
     98 H43        -2.2100    1.0760    5.6570 hc        1 MOL      0.110383
     99 H44        -2.1170    4.1040    6.5380 hc        1 MOL      0.009168
    100 H45        -3.7500    4.2590    7.0870 hc        1 MOL      0.009168
    101 H46        -2.9180    2.6700    7.2360 hc        1 MOL      0.009168
    102 N10        -2.7590    0.7280    1.4510 n         1 MOL     -0.690479
    103 C32        -2.2740   -0.2320    0.4700 c3        1 MOL      0.295094
    104 C33        -3.5090   -0.8710   -0.2160 c         1 MOL      0.318164
    105 O16        -3.3580   -1.8330   -0.9270 o         1 MOL     -0.405402
    106 C34        -1.4820   -1.3370    1.1590 c3        1 MOL      0.054319
    107 C35        -0.4330   -2.1530    0.3410 c         1 MOL      0.610248
    108 O17        -0.1950   -1.8600   -0.8790 o         1 MOL     -0.708371
    109 O18         0.2460   -3.0700    0.9130 o         1 MOL     -0.708371
    110 H47        -3.6570    0.4840    1.8170 hn        1 MOL      0.323579
    111 H48        -1.5960    0.2920   -0.2110 h1        1 MOL      0.053474
    112 H49        -2.1170   -2.0320    1.6960 hc        1 MOL     -0.022094
    113 H50        -0.8450   -0.8400    1.8890 hc        1 MOL     -0.022094
    114 N11        -4.6800   -0.3320   -0.0750 n         1 MOL     -0.433982
    115 C36        -5.8520   -0.7990   -0.7570 c3        1 MOL      0.349284
    116 C37        -6.4170   -2.0630   -0.0470 c         1 MOL      0.212916
    117 O19        -6.4850   -2.0120    1.1930 o         1 MOL     -0.490397
    118 C38        -6.8960    0.3190   -0.8300 c3        1 MOL     -0.275455
    119 C39        -6.6250    1.5960   -1.5660 ca        1 MOL      0.142376
    120 C40        -6.0700    2.6900   -0.8820 ca        1 MOL     -0.222040
    121 C41        -6.9650    1.6430   -2.9460 ca        1 MOL     -0.222040
    122 C42        -5.8990    3.8800   -1.5650 ca        1 MOL     -0.003663
    123 C43        -6.6200    2.8470   -3.6160 ca        1 MOL     -0.003663
    124 C44        -6.1620    4.0110   -2.9550 ca        1 MOL     -0.231407
    125 H51        -4.7680    0.4550    0.5480 hn        1 MOL      0.272552
    126 H52        -5.6930   -1.0530   -1.8060 h1        1 MOL      0.002199
    127 H53        -7.2170    0.5570    0.1860 hc        1 MOL      0.081539
    128 H54        -7.6490   -0.2090   -1.4220 hc        1 MOL      0.081539
    129 H55        -5.6750    2.3720    0.0750 ha        1 MOL      0.132081
    130 H56        -7.3510    0.7380   -3.3900 ha        1 MOL      0.132081
    131 H57        -5.4180    4.7520   -1.1480 ha        1 MOL      0.065334
    132 H58        -6.8950    2.7970   -4.6590 ha        1 MOL      0.065334
    133 H59        -6.0000    4.9640   -3.4220 ha        1 MOL      0.149031
    134 N12        -6.7520   -3.1610   -0.8020 n         1 MOL      0.009524
    135 C45        -7.2090   -4.3490   -0.1270 c3        1 MOL     -0.054559
    136 C46        -6.1290   -5.0180    0.7540 c         1 MOL      0.492701
    137 O20        -6.4350   -5.7820    1.6720 o         1 MOL     -0.562344
    138 C47        -7.6270   -5.2500   -1.2550 c3        1 MOL     -0.082699
    139 C48        -6.6920   -4.9220   -2.4460 c3        1 MOL      0.046778
    140 C49        -6.6190   -3.3880   -2.2400 c3        1 MOL     -0.238686
    141 H60        -8.0940   -4.2040    0.4880 h1        1 MOL      0.065343
    142 H61        -7.6340   -6.2870   -0.9390 hc        1 MOL      0.041217
    143 H62        -8.6010   -5.0250   -1.7010 hc        1 MOL      0.041217
    144 H63        -5.7690   -5.4510   -2.1930 hc        1 MOL      0.028870
    145 H64        -7.1810   -5.2640   -3.3670 hc        1 MOL      0.028870
    146 H65        -5.6670   -3.0310   -2.6430 h1        1 MOL      0.094076
    147 H66        -7.4650   -2.9050   -2.7380 h1        1 MOL      0.094076
    148 N13        -4.7940   -4.7720    0.4600 n         1 MOL     -0.099997
    149 C50        -3.7000   -5.5330    1.0720 c3        1 MOL     -0.497419
    150 C51        -3.3500   -5.0150    2.4920 c         1 MOL      0.509739
    151 O21        -2.3480   -5.4830    3.0990 o         1 MOL     -0.540949
    152 C52        -2.4360   -5.3330    0.0970 c3        1 MOL      0.602280
    153 C53        -2.5600   -6.1400   -1.2050 c3        1 MOL     -0.442454
    154 C54        -1.4030   -5.9990   -2.1400 c         1 MOL      0.782581
    155 O22        -0.6580   -4.9870   -2.0130 o         1 MOL     -0.721964
    156 O23        -1.3320   -6.8690   -3.0520 o         1 MOL     -0.721964
    157 H67        -4.5420   -4.1330   -0.2790 hn        1 MOL      0.211986
    158 H68        -4.0270   -6.5740    1.0750 h1        1 MOL      0.175623
    159 H69        -1.4900   -5.5860    0.5730 hc        1 MOL     -0.099556
    160 H70        -2.3700   -4.2480   -0.0360 hc        1 MOL     -0.099556
    161 H71        -3.5320   -5.8590   -1.6150 hc        1 MOL      0.048991
    162 H72        -2.5200   -7.1280   -0.7530 hc        1 MOL      0.048991
    163 N14        -4.2750   -4.2680    3.1140 n         1 MOL     -0.153629
    164 C55        -4.0450   -3.9890    4.5770 c3        1 MOL     -0.252475
    165 H73        -5.0040   -3.8620    5.0770 h1        1 MOL      0.101541
    166 H74        -3.5080   -4.8240    5.0270 h1        1 MOL      0.101541
    167 H75        -3.4560   -3.0780    4.6860 h1        1 MOL      0.101541
    168 H76        -4.9660   -3.8050    2.5420 hn        1 MOL      0.196159
    169 Ca1         1.4740   -3.8300   -1.2990 Ca        1 MOL      1.781816
    170 O24         1.2140   -6.1470   -0.0160 oh        1 MOL     -0.835846
    171 H77         1.9790   -6.7110   -0.0690 ho        1 MOL      0.401363
    172 H78         0.5970   -6.6280    0.5440 ho        1 MOL      0.401363
    173 O25         2.3410   -6.0840   -2.8010 oh        1 MOL     -0.835846
    174 H79         2.0220   -6.9700   -2.6420 ho        1 MOL      0.401363
    175 H80         3.2300   -6.2060   -3.1390 ho        1 MOL      0.401363
    176 O26         3.6240   -3.8690    0.3220 oh        1 MOL     -0.835846
    177 H81         4.4510   -4.2790    0.0770 ho        1 MOL      0.401363
    178 H82         3.6190   -3.8860    1.2740 ho        1 MOL      0.401363
    179 O27         0.5890   -2.7970   -3.5160 oh        1 MOL     -0.835846
    180 H83         0.3300   -1.9200   -3.8010 ho        1 MOL      0.401363
    181 H84         1.1590   -3.1200   -4.2160 ho        1 MOL      0.401363
@<TRIPOS>BOND
     1    1    2 1   
     2    1    4 1   
     3    1    5 1   
     4    1    6 1   
     5    2    3 2   
     6    2    7 1   
     7    7    8 1   
     8    7   15 1   
     9    8    9 1   
    10    8   11 1   
    11    8   16 1   
    12    9   10 2   
    13    9   19 1   
    14   11   12 1   
    15   11   17 1   
    16   11   18 1   
    17   12   13 1   
    18   12   14 1   
    19   19   20 1   
    20   19   24 1   
    21   20   21 1   
    22   20   23 1   
    23   20   25 1   
    24   21   22 2   
    25   21   29 1   
    26   23   26 1   
    27   23   27 1   
    28   23   28 1   
    29   29   30 1   
    30   29   37 1   
    31   30   31 1   
    32   30   33 1   
    33   30   38 1   
    34   31   32 2   
    35   31   41 1   
    36   33   34 1   
    37   33   39 1   
    38   33   40 1   
    39   34   35 1   
    40   34   36 1   
    41   41   42 1   
    42   41   45 1   
    43   42   43 1   
    44   42   46 1   
    45   42   47 1   
    46   43   44 2   
    47   43   48 1   
    48   48   49 1   
    49   48   56 1   
    50   49   50 1   
    51   49   52 1   
    52   49   57 1   
    53   50   51 2   
    54   50   62 1   
    55   52   53 1   
    56   52   58 1   
    57   52   59 1   
    58   53   54 1   
    59   53   55 2   
    60   54   60 1   
    61   54   61 1   
    62   62   63 1   
    63   62   66 1   
    64   63   64 1   
    65   63   67 1   
    66   63   68 1   
    67   64   65 2   
    68   64   69 1   
    69   69   70 1   
    70   69   76 1   
    71   70   71 1   
    72   70   73 1   
    73   70   77 1   
    74   71   72 2   
    75   71   83 1   
    76   73   74 1   
    77   73   75 1   
    78   73   78 1   
    79   74   80 1   
    80   74   81 1   
    81   74   82 1   
    82   75   79 1   
    83   83   84 1   
    84   83   91 1   
    85   84   85 1   
    86   84   87 1   
    87   84   92 1   
    88   85   86 2   
    89   85  102 1   
    90   87   88 1   
    91   87   89 1   
    92   87   93 1   
    93   88   90 1   
    94   88   94 1   
    95   88   95 1   
    96   89   96 1   
    97   89   97 1   
    98   89   98 1   
    99   90   99 1   
   100   90  100 1   
   101   90  101 1   
   102  102  103 1   
   103  102  110 1   
   104  103  104 1   
   105  103  106 1   
   106  103  111 1   
   107  104  105 2   
   108  104  114 1   
   109  106  107 1   
   110  106  112 1   
   111  106  113 1   
   112  107  108 1   
   113  107  109 1   
   114  114  115 1   
   115  114  125 1   
   116  115  116 1   
   117  115  118 1   
   118  115  126 1   
   119  116  117 2   
   120  116  134 1   
   121  118  119 1   
   122  118  127 1   
   123  118  128 1   
   124  119  120 ar  
   125  119  121 ar  
   126  120  122 ar  
   127  120  129 1   
   128  121  123 ar  
   129  121  130 1   
   130  122  124 ar  
   131  122  131 1   
   132  123  124 ar  
   133  123  132 1   
   134  124  133 1   
   135  134  135 1   
   136  134  140 1   
   137  135  136 1   
   138  135  138 1   
   139  135  141 1   
   140  136  137 2   
   141  136  148 1   
   142  138  139 1   
   143  138  142 1   
   144  138  143 1   
   145  139  140 1   
   146  139  144 1   
   147  139  145 1   
   148  140  146 1   
   149  140  147 1   
   150  148  149 1   
   151  148  157 1   
   152  149  150 1   
   153  149  152 1   
   154  149  158 1   
   155  150  151 2   
   156  150  163 1   
   157  152  153 1   
   158  152  159 1   
   159  152  160 1   
   160  153  154 1   
   161  153  161 1   
   162  153  162 1   
   163  154  155 1   
   164  154  156 1   
   165  163  164 1   
   166  163  168 1   
   167  164  165 1   
   168  164  166 1   
   169  164  167 1   
   170  170  171 1   
   171  170  172 1   
   172  173  174 1   
   173  173  175 1   
   174  176  177 1   
   175  176  178 1   
   176  179  180 1   
   177  179  181 1   
@<TRIPOS>SUBSTRUCTURE
     1 MOL         1 TEMP              0 ****  ****    0 ROOT
