@<TRIPOS>MOLECULE
MOL
  188   182     1     0     0
SMALL
resp


@<TRIPOS>ATOM
      1 C1          6.5220   -2.5160   -2.6740 c3        1 MOL     -0.283802
      2 C2          7.3460   -2.2810   -1.4170 c         1 MOL      0.650931
      3 O1          6.7920   -1.9270   -0.3900 o         1 MOL     -0.554443
      4 H1          7.1760   -2.4880   -3.5460 hc        1 MOL      0.067541
      5 H2          6.0380   -3.4920   -2.6140 hc        1 MOL      0.067541
      6 H3          5.7640   -1.7390   -2.7630 hc        1 MOL      0.067541
      7 N1          8.6510   -2.4880   -1.4200 n         1 MOL     -0.481186
      8 C3          9.6210   -2.2210   -0.2970 c3        1 MOL     -0.103627
      9 C4          9.6750   -0.7360    0.2150 c         1 MOL      0.525529
     10 O2         10.5970   -0.4510    0.9950 o         1 MOL     -0.511095
     11 C5          9.4340   -3.2890    0.7630 c3        1 MOL      0.017188
     12 C6          9.4840   -4.7700    0.2500 c         1 MOL      0.660289
     13 O3          8.5030   -5.3220   -0.2510 o         1 MOL     -0.658982
     14 O4         10.6100   -5.3580    0.3830 o         1 MOL     -0.658982
     15 H4          9.0760   -2.7320   -2.2990 hn        1 MOL      0.311872
     16 H5         10.5990   -2.4880   -0.6870 h1        1 MOL      0.112736
     17 H6          8.5950   -3.1290    1.4320 hc        1 MOL      0.002303
     18 H7         10.2970   -3.2550    1.4320 hc        1 MOL      0.002303
     19 N2          8.8610    0.2210   -0.2460 n         1 MOL     -0.389749
     20 C7          8.7880    1.6340    0.1660 c3        1 MOL      0.019780
     21 C8          7.3750    2.2680    0.1010 c         1 MOL      0.492205
     22 O5          7.1490    3.4250   -0.2000 o         1 MOL     -0.548061
     23 C9          9.7830    2.3930   -0.7960 c3        1 MOL      0.167881
     24 C10        10.2000    3.8190   -0.4160 c3        1 MOL     -0.075292
     25 C11        11.4450    4.1280   -1.2490 c3        1 MOL     -0.031937
     26 C12        11.0620    4.4020   -2.7120 c3        1 MOL     -0.033204
     27 N3         10.4300    5.7170   -2.8690 n4        1 MOL     -0.237093
     28 H8          8.2530   -0.0710   -1.0020 hn        1 MOL      0.171270
     29 H9          9.2160    1.6490    1.1650 h1        1 MOL      0.090153
     30 H10         9.3460    2.3880   -1.7930 hc        1 MOL     -0.021189
     31 H11        10.6730    1.7780   -0.9700 hc        1 MOL     -0.021189
     32 H12        10.5100    3.8300    0.6230 hc        1 MOL      0.020388
     33 H13         9.3210    4.4390   -0.5790 hc        1 MOL      0.020388
     34 H14        12.1810    3.3280   -1.1470 hc        1 MOL      0.057042
     35 H15        11.9640    5.0290   -0.9160 hc        1 MOL      0.057042
     36 H16        10.4560    3.5900   -3.1080 hx        1 MOL      0.084418
     37 H17        11.9750    4.3500   -3.2930 hx        1 MOL      0.084418
     38 H18         9.4490    5.7370   -2.6300 hn        1 MOL      0.240970
     39 H19        10.8750    6.3120   -2.1990 hn        1 MOL      0.240970
     40 H20        10.4830    6.1210   -3.7980 hn        1 MOL      0.240970
     41 N4          6.3960    1.3700    0.1740 n         1 MOL     -0.299151
     42 C13         4.9720    1.7230    0.0610 c3        1 MOL     -0.078646
     43 C14         4.4930    2.3540    1.3690 c         1 MOL      0.538002
     44 O6          4.6550    1.7270    2.4380 o         1 MOL     -0.500245
     45 C15         4.1590    0.4580   -0.3430 c3        1 MOL     -0.114779
     46 C16         2.6750    0.5870   -0.5240 c         1 MOL      0.709020
     47 O7          2.1380    0.6080   -1.6700 o         1 MOL     -0.767277
     48 O8          1.9490    0.8540    0.4970 o         1 MOL     -0.767277
     49 H21         6.6010    0.4000    0.3790 hn        1 MOL      0.275695
     50 H22         4.7570    2.4630   -0.7170 h1        1 MOL      0.058991
     51 H23         4.3040   -0.3480    0.3810 hc        1 MOL      0.056740
     52 H24         4.6220    0.1650   -1.2830 hc        1 MOL      0.056740
     53 N5          3.7560    3.4450    1.3570 n         1 MOL     -0.306909
     54 C17         3.1930    4.0510    2.5560 c3        1 MOL     -0.171742
     55 C18         2.2840    3.2640    3.5260 c         1 MOL      0.622502
     56 O9          2.2690    3.6560    4.6760 o         1 MOL     -0.555494
     57 H25         3.4780    3.8810    0.4940 hn        1 MOL      0.231915
     58 H26         2.5330    4.8650    2.2820 h1        1 MOL      0.093394
     59 H27         4.0240    4.4340    3.1580 h1        1 MOL      0.093394
     60 N6          1.5250    2.2810    3.0820 n         1 MOL     -0.517909
     61 C19         0.7210    1.4020    3.9580 c3        1 MOL      0.048168
     62 C20         1.0920   -0.1160    3.7060 c         1 MOL      0.486213
     63 O10         0.3050   -0.9350    4.1150 o         1 MOL     -0.536410
     64 C21        -0.8200    1.8210    3.8980 c3        1 MOL     -0.269198
     65 C22        -1.4500    1.9360    2.5830 c         1 MOL      0.664177
     66 N7         -2.6970    2.2800    2.5970 n         1 MOL     -0.713611
     67 O11        -0.8110    1.6580    1.5740 o         1 MOL     -0.604156
     68 H28         1.5570    2.1110    2.0890 hn        1 MOL      0.373790
     69 H29         1.0290    1.6430    4.9820 h1        1 MOL      0.114726
     70 H30        -0.9110    2.7940    4.3830 hc        1 MOL      0.108281
     71 H31        -1.2990    1.0620    4.5100 hc        1 MOL      0.108281
     72 H32        -3.1700    2.1970    3.4830 hn        1 MOL      0.347238
     73 H33        -3.1640    2.4940    1.7260 hn        1 MOL      0.347238
     74 N8          2.2700   -0.4010    3.0810 n         1 MOL     -0.190726
     75 C23         2.8990   -1.6950    2.9570 c3        1 MOL     -0.335950
     76 C24         2.2010   -2.7270    1.9990 c         1 MOL      0.508240
     77 O12         2.3300   -3.9760    2.1790 o         1 MOL     -0.513951
     78 H34         2.8140    0.3760    2.7310 hn        1 MOL      0.159180
     79 H35         3.0170   -2.1210    3.9640 h1        1 MOL      0.173458
     80 H36         3.9040   -1.4730    2.5960 h1        1 MOL      0.173458
     81 N9          1.4340   -2.0970    1.0950 n         1 MOL     -0.282246
     82 C25         0.6720   -2.9220    0.0920 c3        1 MOL     -0.054028
     83 C26        -0.5810   -2.1780   -0.2500 c         1 MOL      0.244014
     84 O13        -0.4760   -0.9910   -0.4270 o         1 MOL     -0.559122
     85 C27         1.5340   -3.2160   -1.1670 c3        1 MOL     -0.262556
     86 C28         0.7600   -3.5430   -2.4010 ca        1 MOL      0.114154
     87 C29         0.1410   -4.8020   -2.6070 ca        1 MOL     -0.181808
     88 C30         0.5630   -2.4800   -3.3520 ca        1 MOL     -0.181808
     89 C31        -0.5980   -5.0270   -3.7810 ca        1 MOL     -0.250154
     90 C32        -0.2430   -2.7650   -4.5040 ca        1 MOL     -0.250154
     91 C33        -0.7370   -4.0280   -4.7310 ca        1 MOL      0.344947
     92 O14        -1.4030   -4.3420   -5.8970 oh        1 MOL     -0.476035
     93 H37         1.2880   -1.1040    1.0450 hn        1 MOL      0.344403
     94 H38         0.3810   -3.9070    0.4570 h1        1 MOL      0.097323
     95 H39         2.1730   -4.0770   -0.9650 hc        1 MOL      0.153392
     96 H40         2.1470   -2.3480   -1.4130 hc        1 MOL      0.153392
     97 H41         0.2700   -5.5790   -1.8660 ha        1 MOL      0.159712
     98 H42         0.9670   -1.4900   -3.1940 ha        1 MOL      0.159712
     99 H43        -1.0730   -5.9830   -3.9730 ha        1 MOL      0.130702
    100 H44        -0.4590   -2.0160   -5.2470 ha        1 MOL      0.130702
    101 H45        -1.4960   -3.6160   -6.5080 ho        1 MOL      0.350516
    102 N10        -1.7070   -2.8010   -0.4380 n         1 MOL     -0.133291
    103 C34        -3.0650   -2.1740   -0.6340 c3        1 MOL     -0.206517
    104 C35        -3.5080   -1.5970    0.7170 c         1 MOL      0.504695
    105 O15        -4.0230   -0.4560    0.8250 o         1 MOL     -0.547392
    106 C36        -4.1110   -3.1780   -1.1280 c3        1 MOL      0.028863
    107 C37        -3.6520   -3.9270   -2.3910 c3        1 MOL      0.264183
    108 C38        -5.4660   -2.5070   -1.2670 c3        1 MOL     -0.091700
    109 C39        -4.6500   -4.7550   -3.2350 c3        1 MOL     -0.228416
    110 H46        -1.6970   -3.8080   -0.3120 hn        1 MOL      0.218333
    111 H47        -3.1130   -1.4500   -1.4500 h1        1 MOL      0.136493
    112 H48        -4.2930   -3.8670   -0.3010 hc        1 MOL     -0.044715
    113 H49        -2.9350   -4.6500   -2.0030 hc        1 MOL     -0.039797
    114 H50        -3.1340   -3.2830   -3.0950 hc        1 MOL     -0.039797
    115 H51        -5.3390   -1.5200   -1.7140 hc        1 MOL      0.009419
    116 H52        -6.2400   -3.0660   -1.7850 hc        1 MOL      0.009419
    117 H53        -5.9160   -2.2880   -0.3050 hc        1 MOL      0.009419
    118 H54        -5.2180   -3.9880   -3.7620 hc        1 MOL      0.062632
    119 H55        -4.2010   -5.3690   -4.0120 hc        1 MOL      0.062632
    120 H56        -5.3260   -5.4140   -2.6930 hc        1 MOL      0.062632
    121 N11        -3.3060   -2.3000    1.8330 n         1 MOL     -0.050163
    122 C40        -3.5690   -1.8080    3.1590 c3        1 MOL     -0.158126
    123 C41        -5.0830   -1.6800    3.3120 c         1 MOL      0.683122
    124 O16        -5.5850   -0.8580    4.0360 o         1 MOL     -0.547476
    125 C42        -3.0220   -2.7770    4.1940 c3        1 MOL      0.043570
    126 O17        -3.7640   -4.0560    4.2030 oh        1 MOL     -0.648937
    127 H57        -2.9490   -3.2490    1.7440 hn        1 MOL      0.187334
    128 H58        -3.1570   -0.8160    3.3400 h1        1 MOL      0.094506
    129 H59        -3.1730   -2.3780    5.2030 h1        1 MOL      0.092556
    130 H60        -1.9830   -2.9410    3.9110 h1        1 MOL      0.092556
    131 H61        -3.1740   -4.6820    4.6190 ho        1 MOL      0.438628
    132 N12        -5.9290   -2.4820    2.5350 n         1 MOL     -0.428401
    133 C43        -7.3510   -2.3880    2.4600 c3        1 MOL      0.242691
    134 C44        -7.9370   -1.0650    1.9420 c         1 MOL      0.473576
    135 O18        -9.1760   -0.9450    2.0150 o         1 MOL     -0.542005
    136 C45        -7.9470   -2.9580    3.7680 c3        1 MOL     -0.554526
    137 H62        -5.5340   -3.2830    2.0520 hn        1 MOL      0.241461
    138 H63        -7.6840   -3.0970    1.6900 h1        1 MOL      0.052515
    139 H64        -9.0040   -2.7340    3.8860 hc        1 MOL      0.158981
    140 H65        -7.8330   -4.0480    3.8340 hc        1 MOL      0.158981
    141 H66        -7.4430   -2.3720    4.5310 hc        1 MOL      0.158981
    142 N13        -7.1650    0.0220    1.6030 n         1 MOL     -0.341418
    143 C46        -7.7140    1.3790    1.3460 c3        1 MOL      0.125855
    144 C47        -8.1760    1.4140   -0.1320 c         1 MOL      0.437913
    145 O19        -7.6120    0.9390   -1.1200 o         1 MOL     -0.421412
    146 C48        -6.6740    2.4390    1.6440 c3        1 MOL     -0.102969
    147 H67        -6.1590   -0.0810    1.5340 hn        1 MOL      0.208679
    148 H68        -8.6050    1.5550    1.9590 h1        1 MOL      0.064274
    149 H69        -5.9430    2.4130    0.8250 hc        1 MOL      0.026450
    150 H70        -7.1010    3.4360    1.6290 hc        1 MOL      0.026450
    151 H71        -6.1040    2.1870    2.5430 hc        1 MOL      0.026450
    152 N14        -9.2940    2.0910   -0.4370 n         1 MOL     -0.587647
    153 C49        -9.7020    2.4610   -1.7910 c3        1 MOL     -0.135600
    154 C50       -10.1120    1.2960   -2.6310 c         1 MOL      0.525501
    155 O20       -10.1620    1.3800   -3.8580 o         1 MOL     -0.541015
    156 C51        -8.5750    3.3430   -2.5210 c3        1 MOL      0.270518
    157 C52        -8.3570    4.5050   -1.5480 c3        1 MOL     -0.152854
    158 C53        -7.1700    5.4370   -1.9220 c         1 MOL      0.540238
    159 O21        -7.4130    6.5440   -2.5070 o         1 MOL     -0.660987
    160 O22        -6.0000    4.9640   -1.8620 o         1 MOL     -0.660987
    161 H72        -9.6640    2.6690    0.3110 hn        1 MOL      0.337329
    162 H73       -10.5660    3.0990   -1.7010 h1        1 MOL      0.107042
    163 H74        -8.9960    3.6840   -3.4720 hc        1 MOL     -0.019134
    164 H75        -7.6800    2.7500   -2.6990 hc        1 MOL     -0.019134
    165 H76        -8.2190    4.1250   -0.5340 hc        1 MOL      0.022782
    166 H77        -9.2330    5.1460   -1.5220 hc        1 MOL      0.022782
    167 N15       -10.5400    0.2170   -1.9810 n         1 MOL     -0.349009
    168 C54       -10.7160   -1.1140   -2.5740 c3        1 MOL     -0.065513
    169 H78       -10.5290   -1.0600   -3.6470 h1        1 MOL      0.067244
    170 H79       -10.0140   -1.8120   -2.1180 h1        1 MOL      0.067244
    171 H80       -11.7360   -1.4570   -2.4000 h1        1 MOL      0.067244
    172 H81       -10.4800    0.2480   -0.9720 hn        1 MOL      0.263030
    173 Ca1        -0.0770    1.6920   -1.0430 Ca        1 MOL      1.732715
    174 O23        -2.7440    1.1410   -0.8680 oh        1 MOL     -0.794003
    175 H82        -3.3110    1.8930   -1.0060 ho        1 MOL      0.400673
    176 H83        -3.1810    0.6280   -0.1830 ho        1 MOL      0.400673
    177 O24         1.2070    3.0940   -3.0290 oh        1 MOL     -0.794003
    178 H84         0.9480    3.7290   -3.6990 ho        1 MOL      0.400673
    179 H85         1.7020    2.4340   -3.5030 ho        1 MOL      0.400673
    180 O25        -1.8540    3.7650   -1.4750 oh        1 MOL     -0.794003
    181 H86        -2.1950    4.1140   -2.3020 ho        1 MOL      0.400673
    182 H87        -2.4840    4.0320   -0.8190 ho        1 MOL      0.400673
    183 O26        -0.8740    0.6970   -3.4120 oh        1 MOL     -0.794003
    184 H88        -1.7650    0.5360   -3.7230 ho        1 MOL      0.400673
    185 H89        -0.3200    0.3060   -4.0780 ho        1 MOL      0.400673
    186 O27         0.7230    3.8980   -0.0000 oh        1 MOL     -0.794003
    187 H90         1.5120    4.3300   -0.3370 ho        1 MOL      0.400673
    188 H91         0.3510    4.5360    0.6060 ho        1 MOL      0.400673
@<TRIPOS>BOND
     1    1    2 1   
     2    1    4 1   
     3    1    5 1   
     4    1    6 1   
     5    2    3 2   
     6    2    7 1   
     7    7    8 1   
     8    7   15 1   
     9    8    9 1   
    10    8   11 1   
    11    8   16 1   
    12    9   10 2   
    13    9   19 1   
    14   11   12 1   
    15   11   17 1   
    16   11   18 1   
    17   12   13 1   
    18   12   14 1   
    19   19   20 1   
    20   19   28 1   
    21   20   21 1   
    22   20   23 1   
    23   20   29 1   
    24   21   22 2   
    25   21   41 1   
    26   23   24 1   
    27   23   30 1   
    28   23   31 1   
    29   24   25 1   
    30   24   32 1   
    31   24   33 1   
    32   25   26 1   
    33   25   34 1   
    34   25   35 1   
    35   26   27 1   
    36   26   36 1   
    37   26   37 1   
    38   27   38 1   
    39   27   39 1   
    40   27   40 1   
    41   41   42 1   
    42   41   49 1   
    43   42   43 1   
    44   42   45 1   
    45   42   50 1   
    46   43   44 2   
    47   43   53 1   
    48   45   46 1   
    49   45   51 1   
    50   45   52 1   
    51   46   47 1   
    52   46   48 1   
    53   53   54 1   
    54   53   57 1   
    55   54   55 1   
    56   54   58 1   
    57   54   59 1   
    58   55   56 2   
    59   55   60 1   
    60   60   61 1   
    61   60   68 1   
    62   61   62 1   
    63   61   64 1   
    64   61   69 1   
    65   62   63 2   
    66   62   74 1   
    67   64   65 1   
    68   64   70 1   
    69   64   71 1   
    70   65   66 1   
    71   65   67 2   
    72   66   72 1   
    73   66   73 1   
    74   74   75 1   
    75   74   78 1   
    76   75   76 1   
    77   75   79 1   
    78   75   80 1   
    79   76   77 2   
    80   76   81 1   
    81   81   82 1   
    82   81   93 1   
    83   82   83 1   
    84   82   85 1   
    85   82   94 1   
    86   83   84 2   
    87   83  102 1   
    88   85   86 1   
    89   85   95 1   
    90   85   96 1   
    91   86   87 ar  
    92   86   88 ar  
    93   87   89 ar  
    94   87   97 1   
    95   88   90 ar  
    96   88   98 1   
    97   89   91 ar  
    98   89   99 1   
    99   90   91 ar  
   100   90  100 1   
   101   91   92 1   
   102   92  101 1   
   103  102  103 1   
   104  102  110 1   
   105  103  104 1   
   106  103  106 1   
   107  103  111 1   
   108  104  105 2   
   109  104  121 1   
   110  106  107 1   
   111  106  108 1   
   112  106  112 1   
   113  107  109 1   
   114  107  113 1   
   115  107  114 1   
   116  108  115 1   
   117  108  116 1   
   118  108  117 1   
   119  109  118 1   
   120  109  119 1   
   121  109  120 1   
   122  121  122 1   
   123  121  127 1   
   124  122  123 1   
   125  122  125 1   
   126  122  128 1   
   127  123  124 2   
   128  123  132 1   
   129  125  126 1   
   130  125  129 1   
   131  125  130 1   
   132  126  131 1   
   133  132  133 1   
   134  132  137 1   
   135  133  134 1   
   136  133  136 1   
   137  133  138 1   
   138  134  135 2   
   139  134  142 1   
   140  136  139 1   
   141  136  140 1   
   142  136  141 1   
   143  142  143 1   
   144  142  147 1   
   145  143  144 1   
   146  143  146 1   
   147  143  148 1   
   148  144  145 2   
   149  144  152 1   
   150  146  149 1   
   151  146  150 1   
   152  146  151 1   
   153  152  153 1   
   154  152  161 1   
   155  153  154 1   
   156  153  156 1   
   157  153  162 1   
   158  154  155 2   
   159  154  167 1   
   160  156  157 1   
   161  156  163 1   
   162  156  164 1   
   163  157  158 1   
   164  157  165 1   
   165  157  166 1   
   166  158  159 1   
   167  158  160 1   
   168  167  168 1   
   169  167  172 1   
   170  168  169 1   
   171  168  170 1   
   172  168  171 1   
   173  174  175 1   
   174  174  176 1   
   175  177  178 1   
   176  177  179 1   
   177  180  181 1   
   178  180  182 1   
   179  183  184 1   
   180  183  185 1   
   181  186  187 1   
   182  186  188 1   
@<TRIPOS>SUBSTRUCTURE
     1 MOL         1 TEMP              0 ****  ****    0 ROOT
