@<TRIPOS>MOLECULE
MOL
  192   187     1     0     0
SMALL
resp


@<TRIPOS>ATOM
      1 C1         -7.8200    0.9830   -3.2770 c3        1 MOL     -0.457147
      2 C2         -7.2850    1.1960   -1.8170 c         1 MOL      0.630024
      3 O1         -6.4660    2.0390   -1.5450 o         1 MOL     -0.574415
      4 H1         -7.6500    1.8880   -3.8610 hc        1 MOL      0.116845
      5 H2         -7.2930    0.1480   -3.7390 hc        1 MOL      0.116845
      6 H3         -8.8880    0.7670   -3.2460 hc        1 MOL      0.116845
      7 N1         -7.8400    0.3630   -0.9270 n         1 MOL     -0.313312
      8 C3         -7.6060    0.1880    0.5400 c3        1 MOL     -0.068074
      9 C4         -6.9210   -1.1170    0.9670 c         1 MOL      0.440590
     10 O2         -6.7010   -1.3880    2.1770 o         1 MOL     -0.463819
     11 C5         -8.9820    0.3750    1.2370 c3        1 MOL     -0.158978
     12 C6        -10.1950   -0.3740    0.5850 c         1 MOL      0.673012
     13 O3        -11.3730    0.0350    0.7920 o         1 MOL     -0.690523
     14 O4         -9.9460   -1.3670   -0.1710 o         1 MOL     -0.690523
     15 H4         -8.5790   -0.1920   -1.3280 hn        1 MOL      0.203969
     16 H5         -6.9260    0.9480    0.9270 h1        1 MOL      0.128849
     17 H6         -9.1900    1.4470    1.2590 hc        1 MOL      0.053131
     18 H7         -8.9400    0.0360    2.2660 hc        1 MOL      0.053131
     19 N2         -6.5600   -1.9920   -0.0110 n         1 MOL     -0.315602
     20 C7         -6.1450   -3.3880    0.1890 c3        1 MOL      0.059477
     21 C8         -4.6930   -3.6600    0.7410 c         1 MOL      0.689597
     22 O5         -4.6790   -4.5640    1.5310 o         1 MOL     -0.569352
     23 C9         -6.4610   -4.1580   -1.0660 c3        1 MOL     -0.203426
     24 C10        -7.9420   -4.2690   -1.2690 c3        1 MOL      0.188872
     25 C11        -8.1780   -5.2300   -2.3950 c3        1 MOL     -0.066791
     26 C12        -9.6170   -5.1040   -2.9680 c3        1 MOL      0.029742
     27 N3        -10.5320   -6.1420   -2.4010 n4        1 MOL     -0.355873
     28 H8         -7.0580   -1.7520   -0.8600 hn        1 MOL      0.174970
     29 H9         -6.7200   -3.8800    0.9780 h1        1 MOL      0.068382
     30 H10        -5.9930   -5.1300   -0.8610 hc        1 MOL      0.049221
     31 H11        -5.9860   -3.8010   -1.9820 hc        1 MOL      0.049221
     32 H12        -8.3060   -3.2500   -1.4100 hc        1 MOL      0.002573
     33 H13        -8.3930   -4.5580   -0.3280 hc        1 MOL      0.002573
     34 H14        -8.0120   -6.2480   -2.0560 hc        1 MOL      0.031058
     35 H15        -7.5750   -5.0830   -3.3000 hc        1 MOL      0.031058
     36 H16        -9.6960   -5.3320   -4.0360 hx        1 MOL      0.086495
     37 H17        -9.9570   -4.0770   -2.8100 hx        1 MOL      0.086495
     38 H18       -11.3700   -6.2790   -2.9470 hn        1 MOL      0.320683
     39 H19       -10.1320   -7.0660   -2.4710 hn        1 MOL      0.320683
     40 H20       -10.7870   -6.0490   -1.4350 hn        1 MOL      0.320683
     41 N4         -3.5760   -2.9920    0.3820 n         1 MOL     -0.725959
     42 C13        -3.6200   -1.7360   -0.3950 c3        1 MOL      0.257145
     43 C14        -3.7350   -0.5900    0.5680 c         1 MOL      0.096805
     44 O6         -3.5710   -0.8190    1.7960 o         1 MOL     -0.311362
     45 C15        -2.3070   -1.5160   -1.1280 c3        1 MOL      0.000707
     46 C16        -0.9840   -1.9660   -0.3750 c         1 MOL      0.457875
     47 O7         -0.6910   -1.4750    0.7220 o         1 MOL     -0.579005
     48 O8         -0.2680   -2.7900   -0.9360 o         1 MOL     -0.579005
     49 H21        -2.6600   -3.2620    0.7260 hn        1 MOL      0.434352
     50 H22        -4.4670   -1.7400   -1.0810 h1        1 MOL     -0.002258
     51 H23        -2.2690   -0.4640   -1.4200 hc        1 MOL      0.003409
     52 H24        -2.3430   -2.0410   -2.0760 hc        1 MOL      0.003409
     53 N5         -4.0990    0.6190    0.1470 n         1 MOL     -0.270530
     54 C17        -4.2040    1.8210    1.0010 c3        1 MOL     -0.095919
     55 C18        -2.8330    2.3960    1.4400 c         1 MOL      0.548821
     56 O9         -1.7770    1.6790    1.5140 o         1 MOL     -0.490060
     57 H25        -4.3230    0.7220   -0.8220 hn        1 MOL      0.230302
     58 H26        -4.8480    1.5800    1.8480 h1        1 MOL      0.096976
     59 H27        -4.7360    2.6030    0.4710 h1        1 MOL      0.096976
     60 N6         -2.8180    3.6410    1.9390 n         1 MOL     -0.315075
     61 C19        -1.6530    4.3940    2.4320 c3        1 MOL     -0.056022
     62 C20        -1.9580    5.9290    2.4230 c         1 MOL      0.604304
     63 O10        -3.1390    6.3550    2.3270 o         1 MOL     -0.527404
     64 C21        -1.3840    4.0250    3.8760 c3        1 MOL     -0.464165
     65 C22        -1.1100    2.5180    4.0990 c         1 MOL      0.774657
     66 O11        -1.8220    1.7130    4.7520 o         1 MOL     -0.685447
     67 O12        -0.0580    2.0800    3.6200 o         1 MOL     -0.685447
     68 H28        -3.6910    4.1130    1.7850 hn        1 MOL      0.248023
     69 H29        -0.7620    4.2690    1.8180 h1        1 MOL      0.175351
     70 H30        -2.2910    4.3570    4.3860 hc        1 MOL      0.128858
     71 H31        -0.4980    4.5380    4.2310 hc        1 MOL      0.128858
     72 N7         -0.9300    6.8340    2.5260 n         1 MOL     -0.544134
     73 C23         0.4970    6.6440    2.4380 c3        1 MOL      0.129437
     74 C24         0.9800    6.3180    1.0360 c         1 MOL      0.465503
     75 O13         0.4160    6.6620    0.0040 o         1 MOL     -0.470084
     76 H32        -1.2040    7.7950    2.6980 hn        1 MOL      0.322938
     77 H33         0.9180    5.9530    3.1720 h1        1 MOL      0.043201
     78 H34         1.0440    7.4980    2.8220 h1        1 MOL      0.043201
     79 N8          2.0660    5.4830    1.0260 n         1 MOL     -0.437147
     80 C25         2.5470    4.6020   -0.0220 c3        1 MOL     -0.227365
     81 C26         1.5200    3.5920   -0.4500 c         1 MOL      0.802085
     82 O14         0.8490    2.9360    0.3530 o         1 MOL     -0.855776
     83 C27         3.8660    3.9330    0.4140 c3        1 MOL      0.635963
     84 C28         4.9380    4.9900    0.4740 c3        1 MOL     -0.304888
     85 O15         4.1990    3.0910   -0.6720 oh        1 MOL     -0.718924
     86 H35         2.5590    5.3750    1.9070 hn        1 MOL      0.225512
     87 H36         2.6900    5.2720   -0.8640 h1        1 MOL      0.096905
     88 H37         3.8090    3.3950    1.3570 h1        1 MOL     -0.007708
     89 H38         4.8290    3.6550   -1.1430 ho        1 MOL      0.341302
     90 H39         5.8280    4.4540    0.8220 hc        1 MOL      0.078695
     91 H40         5.1240    5.4830   -0.4740 hc        1 MOL      0.078695
     92 H41         4.7910    5.8300    1.1420 hc        1 MOL      0.078695
     93 N9          1.2160    3.5890   -1.7070 n         1 MOL     -0.390055
     94 C29         0.2560    2.6710   -2.4020 c3        1 MOL      0.068428
     95 C30         0.5600    1.1600   -2.1080 c         1 MOL      0.573211
     96 O16         0.1320    0.6120   -1.1220 o         1 MOL     -0.483746
     97 C31        -1.2210    3.0380   -2.0740 c3        1 MOL     -0.006546
     98 C32        -1.4750    4.5620   -2.3410 c3        1 MOL      0.122928
     99 C33        -2.2670    2.2110   -2.8250 c3        1 MOL     -0.365170
    100 C34        -2.8800    5.0970   -2.2330 c3        1 MOL     -0.258551
    101 H42         1.7770    4.2310   -2.2420 hn        1 MOL      0.226180
    102 H43         0.4840    2.8040   -3.4620 h1        1 MOL      0.035309
    103 H44        -1.3880    2.8450   -1.0080 hc        1 MOL      0.092427
    104 H45        -1.0230    4.9040   -3.2730 hc        1 MOL     -0.016725
    105 H46        -0.8580    5.0250   -1.5700 hc        1 MOL     -0.016725
    106 H47        -2.0140    1.1610   -2.6750 hc        1 MOL      0.098481
    107 H48        -3.2180    2.4850   -2.3480 hc        1 MOL      0.098481
    108 H49        -2.3430    2.4380   -3.8870 hc        1 MOL      0.098481
    109 H50        -3.4860    4.7710   -3.0730 hc        1 MOL      0.067496
    110 H51        -3.3420    4.8890   -1.2620 hc        1 MOL      0.067496
    111 H52        -2.7380    6.1760   -2.1460 hc        1 MOL      0.067496
    112 N10         1.5100    0.6940   -2.9370 n         1 MOL     -0.484647
    113 C35         2.0880   -0.6850   -2.8750 c3        1 MOL     -0.086202
    114 C36         3.6330   -0.6740   -3.1940 c         1 MOL      0.501455
    115 O17         4.0770   -1.7590   -3.6140 o         1 MOL     -0.513514
    116 C37         1.2930   -1.5980   -3.8690 c3        1 MOL      0.420909
    117 C38         1.4420   -1.0500   -5.3480 c3        1 MOL     -0.340777
    118 O18        -0.0820   -1.6960   -3.5460 oh        1 MOL     -0.526666
    119 H53         1.9880    1.2870   -3.5990 hn        1 MOL      0.269523
    120 H54         2.0290   -1.0300   -1.8500 h1        1 MOL      0.098555
    121 H55         1.7230   -2.6040   -3.8540 h1        1 MOL     -0.005117
    122 H56        -0.0490   -2.0620   -2.6540 ho        1 MOL      0.272423
    123 H57         0.7600   -1.6590   -5.9580 hc        1 MOL      0.080381
    124 H58         0.9890   -0.0750   -5.5270 hc        1 MOL      0.080381
    125 H59         2.4730   -1.1080   -5.6760 hc        1 MOL      0.080381
    126 N11         4.3410    0.4610   -3.0180 n         1 MOL     -0.282637
    127 C39         5.8060    0.6420   -3.0520 c3        1 MOL      0.001461
    128 C40         6.4720   -0.1640   -1.9420 c         1 MOL      0.535078
    129 O19         7.1560    0.4440   -1.0910 o         1 MOL     -0.524452
    130 C41         6.3540    2.1300   -3.0660 c3        1 MOL      0.430622
    131 C42         7.8440    2.3050   -3.3820 c3        1 MOL     -0.395347
    132 O20         5.6090    2.8920   -3.9930 oh        1 MOL     -0.659583
    133 H60         3.7950    1.2790   -2.8040 hn        1 MOL      0.212482
    134 H61         6.2020    0.1530   -3.9420 h1        1 MOL      0.057953
    135 H62         6.2020    2.6220   -2.1080 h1        1 MOL     -0.029219
    136 H63         5.9920    3.7660   -4.0600 ho        1 MOL      0.415048
    137 H64         8.0830    1.9040   -4.3640 hc        1 MOL      0.099827
    138 H65         7.9880    3.3720   -3.4850 hc        1 MOL      0.099827
    139 H66         8.5650    1.8820   -2.6700 hc        1 MOL      0.099827
    140 N12         6.3570   -1.5450   -2.0200 n         1 MOL     -0.485412
    141 C43         6.4750   -2.4380   -0.8180 c3        1 MOL      0.172156
    142 C44         5.4390   -2.1500    0.2490 c         1 MOL      0.502474
    143 O21         4.9330   -1.0130    0.4100 o         1 MOL     -0.521260
    144 C45         7.9510   -2.3890   -0.2900 c3        1 MOL     -0.475601
    145 C46         9.0060   -2.6230   -1.3580 c3        1 MOL      0.049934
    146 C47        10.5420   -2.3870   -1.0400 c3        1 MOL      0.114230
    147 C48        11.1490   -3.2920   -0.0310 c3        1 MOL     -0.026124
    148 N13        12.3030   -2.6200    0.5940 n4        1 MOL     -0.080130
    149 H67         5.8140   -1.9040   -2.7910 hn        1 MOL      0.266825
    150 H68         6.2600   -3.4270   -1.2280 h1        1 MOL      0.086875
    151 H69         8.0720   -3.0200    0.5960 hc        1 MOL      0.154689
    152 H70         8.1480   -1.3820    0.0560 hc        1 MOL      0.154689
    153 H71         8.8710   -1.8290   -2.1060 hc        1 MOL      0.022353
    154 H72         8.8610   -3.5760   -1.8580 hc        1 MOL      0.022353
    155 H73        10.6880   -1.3410   -0.7970 hc        1 MOL     -0.005910
    156 H74        11.2010   -2.5790   -1.8820 hc        1 MOL     -0.005910
    157 H75        11.4070   -4.1750   -0.6100 hx        1 MOL      0.064728
    158 H76        10.3740   -3.4270    0.7270 hx        1 MOL      0.064728
    159 H77        12.6620   -3.2500    1.2900 hn        1 MOL      0.208009
    160 H78        13.0260   -2.5070   -0.1050 hn        1 MOL      0.208009
    161 H79        12.1650   -1.6710    0.9210 hn        1 MOL      0.208009
    162 N14         5.0730   -3.1590    0.9680 n         1 MOL     -0.499532
    163 C49         4.0980   -3.0310    1.9810 c3        1 MOL      0.333192
    164 C50         2.7190   -2.7260    1.3690 c         1 MOL      0.242848
    165 O22         2.0850   -1.8240    1.8790 o         1 MOL     -0.488165
    166 C51         3.9230   -4.3200    2.9490 c3        1 MOL     -0.110747
    167 C52         5.1120   -4.4850    3.9370 c3        1 MOL     -0.049019
    168 C53         5.0980   -5.6520    4.8820 c         1 MOL      0.663679
    169 O23         5.8960   -6.5740    4.6130 o         1 MOL     -0.648124
    170 O24         4.2700   -5.6710    5.8010 o         1 MOL     -0.648124
    171 H80         5.6930   -3.9620    0.9150 hn        1 MOL      0.286131
    172 H81         4.3800   -2.2070    2.6390 h1        1 MOL      0.015786
    173 H82         3.8090   -5.2070    2.3400 hc        1 MOL      0.075571
    174 H83         3.0510   -4.0330    3.5490 hc        1 MOL      0.075571
    175 H84         5.2260   -3.5640    4.5040 hc        1 MOL     -0.034702
    176 H85         6.0340   -4.5990    3.3620 hc        1 MOL     -0.034702
    177 N15         2.1300   -3.4150    0.3830 n         1 MOL     -0.229840
    178 C54         2.4240   -4.6910   -0.2570 c3        1 MOL     -0.036865
    179 H86         2.4480   -5.4790    0.4960 h1        1 MOL      0.033689
    180 H87         1.6520   -4.9160   -0.9930 h1        1 MOL      0.033689
    181 H88         3.3930   -4.6340   -0.7530 h1        1 MOL      0.033689
    182 H89         1.2150   -3.0510    0.1730 hn        1 MOL      0.294862
    183 Ca1         0.5600    0.5140    1.6570 Ca        1 MOL      1.793802
    184 O25         2.5720    0.5150    3.5880 oh        1 MOL     -0.921477
    185 H90         3.5180    0.4690    3.4580 ho        1 MOL      0.430449
    186 H91         2.4650    0.9060    4.4550 ho        1 MOL      0.430449
    187 O26         2.9360    0.7150    0.3590 oh        1 MOL     -0.921477
    188 H92         3.3930    1.3960   -0.1450 ho        1 MOL      0.430449
    189 H93         3.6190    0.0740    0.5700 ho        1 MOL      0.430449
    190 O27        -0.7100   -0.5820    3.6440 oh        1 MOL     -0.921477
    191 H94        -0.9220   -1.2570    4.2980 ho        1 MOL      0.430449
    192 H95        -0.9510    0.2390    4.0790 ho        1 MOL      0.430449
@<TRIPOS>BOND
     1    1    2 1   
     2    1    4 1   
     3    1    5 1   
     4    1    6 1   
     5    2    3 2   
     6    2    7 1   
     7    7    8 1   
     8    7   15 1   
     9    8    9 1   
    10    8   11 1   
    11    8   16 1   
    12    9   10 2   
    13    9   19 1   
    14   11   12 1   
    15   11   17 1   
    16   11   18 1   
    17   12   13 1   
    18   12   14 1   
    19   19   20 1   
    20   19   28 1   
    21   20   21 1   
    22   20   23 1   
    23   20   29 1   
    24   21   22 2   
    25   21   41 1   
    26   23   24 1   
    27   23   30 1   
    28   23   31 1   
    29   24   25 1   
    30   24   32 1   
    31   24   33 1   
    32   25   26 1   
    33   25   34 1   
    34   25   35 1   
    35   26   27 1   
    36   26   36 1   
    37   26   37 1   
    38   27   38 1   
    39   27   39 1   
    40   27   40 1   
    41   41   42 1   
    42   41   49 1   
    43   42   43 1   
    44   42   45 1   
    45   42   50 1   
    46   43   44 2   
    47   43   53 1   
    48   45   46 1   
    49   45   51 1   
    50   45   52 1   
    51   46   47 1   
    52   46   48 1   
    53   53   54 1   
    54   53   57 1   
    55   54   55 1   
    56   54   58 1   
    57   54   59 1   
    58   55   56 2   
    59   55   60 1   
    60   60   61 1   
    61   60   68 1   
    62   61   62 1   
    63   61   64 1   
    64   61   69 1   
    65   62   63 2   
    66   62   72 1   
    67   64   65 1   
    68   64   70 1   
    69   64   71 1   
    70   65   66 1   
    71   65   67 1   
    72   72   73 1   
    73   72   76 1   
    74   73   74 1   
    75   73   77 1   
    76   73   78 1   
    77   74   75 2   
    78   74   79 1   
    79   79   80 1   
    80   79   86 1   
    81   80   81 1   
    82   80   83 1   
    83   80   87 1   
    84   81   82 2   
    85   81   93 1   
    86   83   84 1   
    87   83   85 1   
    88   83   88 1   
    89   84   90 1   
    90   84   91 1   
    91   84   92 1   
    92   85   89 1   
    93   93   94 1   
    94   93  101 1   
    95   94   95 1   
    96   94   97 1   
    97   94  102 1   
    98   95   96 2   
    99   95  112 1   
   100   97   98 1   
   101   97   99 1   
   102   97  103 1   
   103   98  100 1   
   104   98  104 1   
   105   98  105 1   
   106   99  106 1   
   107   99  107 1   
   108   99  108 1   
   109  100  109 1   
   110  100  110 1   
   111  100  111 1   
   112  112  113 1   
   113  112  119 1   
   114  113  114 1   
   115  113  116 1   
   116  113  120 1   
   117  114  115 2   
   118  114  126 1   
   119  116  117 1   
   120  116  118 1   
   121  116  121 1   
   122  117  123 1   
   123  117  124 1   
   124  117  125 1   
   125  118  122 1   
   126  126  127 1   
   127  126  133 1   
   128  127  128 1   
   129  127  130 1   
   130  127  134 1   
   131  128  129 2   
   132  128  140 1   
   133  130  131 1   
   134  130  132 1   
   135  130  135 1   
   136  131  137 1   
   137  131  138 1   
   138  131  139 1   
   139  132  136 1   
   140  140  141 1   
   141  140  149 1   
   142  141  142 1   
   143  141  144 1   
   144  141  150 1   
   145  142  143 2   
   146  142  162 1   
   147  144  145 1   
   148  144  151 1   
   149  144  152 1   
   150  145  146 1   
   151  145  153 1   
   152  145  154 1   
   153  146  147 1   
   154  146  155 1   
   155  146  156 1   
   156  147  148 1   
   157  147  157 1   
   158  147  158 1   
   159  148  159 1   
   160  148  160 1   
   161  148  161 1   
   162  162  163 1   
   163  162  171 1   
   164  163  164 1   
   165  163  166 1   
   166  163  172 1   
   167  164  165 2   
   168  164  177 1   
   169  166  167 1   
   170  166  173 1   
   171  166  174 1   
   172  167  168 1   
   173  167  175 1   
   174  167  176 1   
   175  168  169 1   
   176  168  170 1   
   177  177  178 1   
   178  177  182 1   
   179  178  179 1   
   180  178  180 1   
   181  178  181 1   
   182  184  185 1   
   183  184  186 1   
   184  187  188 1   
   185  187  189 1   
   186  190  191 1   
   187  190  192 1   
@<TRIPOS>SUBSTRUCTURE
     1 MOL         1 TEMP              0 ****  ****    0 ROOT
