@<TRIPOS>MOLECULE
MOL
  192   187     1     0     0
SMALL
resp


@<TRIPOS>ATOM
      1 C1        -12.4360   -4.6270   -1.5720 c3        1 MOL     -0.359227
      2 C2        -11.9970   -3.2900   -0.8790 c         1 MOL      0.551619
      3 O1        -12.8130   -2.4110   -0.8790 o         1 MOL     -0.550438
      4 H1        -12.6720   -4.4320   -2.6180 hc        1 MOL      0.097647
      5 H2        -11.6230   -5.3510   -1.5130 hc        1 MOL      0.097647
      6 H3        -13.3170   -5.0250   -1.0690 hc        1 MOL      0.097647
      7 N1        -10.8030   -3.1840   -0.3080 n         1 MOL     -0.047125
      8 C3        -10.3540   -2.0580    0.4770 c3        1 MOL     -0.282376
      9 C4         -9.0150   -1.5240   -0.0610 c         1 MOL      0.586404
     10 O2         -8.2400   -2.3030   -0.6660 o         1 MOL     -0.806705
     11 C5        -10.2750   -2.4690    1.9250 c3        1 MOL      0.001204
     12 C6         -9.6690   -3.7970    2.2350 c         1 MOL      0.569504
     13 O3         -8.7420   -4.2420    1.5050 o         1 MOL     -0.646845
     14 O4        -10.0980   -4.3980    3.2310 o         1 MOL     -0.646845
     15 H4        -10.2060   -3.9920   -0.2840 hn        1 MOL      0.057544
     16 H5        -11.1080   -1.2720    0.3510 h1        1 MOL      0.089216
     17 H6        -11.3100   -2.5760    2.2540 hc        1 MOL      0.063937
     18 H7         -9.7890   -1.6660    2.4830 hc        1 MOL      0.063937
     19 N2         -8.6960   -0.2880    0.2370 n         1 MOL     -0.410821
     20 C7         -7.4370    0.2920   -0.2450 c3        1 MOL      0.073903
     21 C8         -6.4450    0.3110    0.9120 c         1 MOL      0.458935
     22 O5         -6.7100    0.9780    1.9240 o         1 MOL     -0.502344
     23 C9         -7.6960    1.6110   -1.0010 c3        1 MOL     -0.070629
     24 C10        -6.4990    2.1400   -1.8730 c3        1 MOL     -0.028048
     25 C11        -5.7360    1.1510   -2.7730 c3        1 MOL     -0.242387
     26 C12        -6.6080    0.5030   -3.7960 c3        1 MOL      0.016578
     27 N3         -7.0110    1.5950   -4.7530 n4        1 MOL     -0.156841
     28 H8         -9.3650    0.3100    0.7050 hn        1 MOL      0.323170
     29 H9         -7.0290   -0.4140   -0.9790 h1        1 MOL      0.208611
     30 H10        -7.8750    2.3930   -0.2700 hc        1 MOL      0.034299
     31 H11        -8.5460    1.6040   -1.6950 hc        1 MOL      0.034299
     32 H12        -5.7990    2.3650   -1.0790 hc        1 MOL      0.044530
     33 H13        -6.7590    3.0480   -2.4040 hc        1 MOL      0.044530
     34 H14        -5.1820    0.4840   -2.1130 hc        1 MOL      0.103986
     35 H15        -4.9580    1.6920   -3.2960 hc        1 MOL      0.103986
     36 H16        -7.4830    0.0880   -3.2900 hx        1 MOL      0.065346
     37 H17        -6.0350   -0.3180   -4.2220 hx        1 MOL      0.065346
     38 H18        -7.6390    1.3270   -5.4950 hn        1 MOL      0.232145
     39 H19        -7.5460    2.3340   -4.3330 hn        1 MOL      0.232145
     40 H20        -6.2020    1.9700   -5.2290 hn        1 MOL      0.232145
     41 N4         -5.2770   -0.3110    0.7130 n         1 MOL     -0.178504
     42 C13        -4.0850   -0.2390    1.5930 c3        1 MOL      0.091515
     43 C14        -2.7570   -0.2780    0.8200 c         1 MOL      0.382324
     44 O6         -2.6330   -0.8710   -0.2760 o         1 MOL     -0.371909
     45 C15        -4.2150   -1.3500    2.6500 c3        1 MOL     -0.124455
     46 C16        -4.9250   -2.5240    2.0370 c         1 MOL      0.536376
     47 O7         -4.2140   -3.3700    1.4430 o         1 MOL     -0.623042
     48 O8         -6.1800   -2.5830    2.1990 o         1 MOL     -0.623042
     49 H21        -5.1290   -0.7870   -0.1640 hn        1 MOL     -0.029577
     50 H22        -4.1640    0.7490    2.0500 h1        1 MOL      0.090123
     51 H23        -4.8090   -1.0330    3.5130 hc        1 MOL      0.054160
     52 H24        -3.2210   -1.6070    3.0000 hc        1 MOL      0.054160
     53 N5         -1.7460    0.4780    1.2450 n         1 MOL     -0.484355
     54 C17        -1.6380    1.1510    2.4980 c3        1 MOL      0.187170
     55 C18        -2.1130    2.5960    2.4900 c         1 MOL      0.321177
     56 O9         -3.0620    2.9540    1.6990 o         1 MOL     -0.531203
     57 H25        -1.1010    0.7890    0.5380 hn        1 MOL      0.370726
     58 H26        -0.6440    1.0910    2.9480 h1        1 MOL      0.043606
     59 H27        -2.1790    0.5870    3.2690 h1        1 MOL      0.043606
     60 N6         -1.6730    3.4130    3.4250 n         1 MOL     -0.199201
     61 C19        -2.1420    4.8290    3.5460 c3        1 MOL     -0.001148
     62 C20        -1.7280    5.8410    2.4110 c         1 MOL      0.434856
     63 O10        -2.5000    6.7500    2.0330 o         1 MOL     -0.520907
     64 C21        -1.7250    5.3530    4.9570 c3        1 MOL     -0.333847
     65 C22        -0.3310    5.1060    5.4910 c         1 MOL      0.714769
     66 O11         0.0140    3.9240    5.6940 o         1 MOL     -0.659088
     67 O12         0.4850    6.0360    5.7540 o         1 MOL     -0.659088
     68 H28        -0.9380    3.1110    4.0450 hn        1 MOL      0.172181
     69 H29        -3.2260    4.8660    3.4610 h1        1 MOL      0.101978
     70 H30        -2.4810    5.0780    5.7030 hc        1 MOL      0.096483
     71 H31        -1.8730    6.4310    4.9160 hc        1 MOL      0.096483
     72 N7         -0.5690    5.5840    1.8220 n         1 MOL     -0.246004
     73 C23         0.0730    6.4180    0.7870 c3        1 MOL      0.019891
     74 C24        -0.0490    5.7990   -0.5580 c         1 MOL      0.527423
     75 O13         0.8220    5.9790   -1.3940 o         1 MOL     -0.548769
     76 H32         0.0060    4.8520    2.2150 hn        1 MOL      0.242115
     77 H33         1.1340    6.5240    0.9670 h1        1 MOL      0.066972
     78 H34        -0.3760    7.4100    0.6500 h1        1 MOL      0.066972
     79 N8         -1.0040    4.8550   -0.7590 n         1 MOL     -0.480461
     80 C25        -1.0830    3.9340   -1.9290 c3        1 MOL      0.310830
     81 C26        -0.5500    2.5090   -1.5710 c         1 MOL      0.338373
     82 O14        -0.2840    2.1830   -0.4200 o         1 MOL     -0.554813
     83 C27        -2.4920    3.7130   -2.5510 c3        1 MOL      0.189662
     84 C28        -3.3600    4.9580   -2.3810 c3        1 MOL     -0.263033
     85 O15        -2.4620    3.3440   -3.8990 oh        1 MOL     -0.617796
     86 H35        -1.5380    4.5790    0.0490 hn        1 MOL      0.243912
     87 H36        -0.4970    4.2820   -2.7870 h1        1 MOL     -0.014195
     88 H37        -2.9230    2.9130   -1.9560 h1        1 MOL      0.065880
     89 H38        -2.0940    4.0750   -4.3990 ho        1 MOL      0.410255
     90 H39        -3.5770    5.1650   -1.3280 hc        1 MOL      0.071628
     91 H40        -2.9830    5.8750   -2.8150 hc        1 MOL      0.071628
     92 H41        -4.3350    4.7950   -2.8360 hc        1 MOL      0.071628
     93 N9         -0.2990    1.6390   -2.5470 n         1 MOL     -0.171524
     94 C29         0.1230    0.2180   -2.4460 c3        1 MOL      0.008276
     95 C30         1.4890    0.0380   -1.7160 c         1 MOL      0.618698
     96 O16         1.7260   -0.9490   -1.0950 o         1 MOL     -0.510280
     97 C31         0.1070   -0.4870   -3.8230 c3        1 MOL      0.147037
     98 C32        -1.2280   -0.3250   -4.6170 c3        1 MOL     -0.099986
     99 C33         0.2840   -1.9890   -3.6690 c3        1 MOL     -0.323900
    100 C34        -2.5310   -0.6200   -3.8240 c3        1 MOL     -0.243227
    101 H42        -0.3410    1.9500   -3.5140 hn        1 MOL      0.185703
    102 H43        -0.6300   -0.2260   -1.7970 h1        1 MOL     -0.058485
    103 H44         0.9600   -0.1530   -4.4160 hc        1 MOL      0.014153
    104 H45        -1.2830   -0.9740   -5.4900 hc        1 MOL      0.023958
    105 H46        -1.2800    0.7010   -4.9900 hc        1 MOL      0.023958
    106 H47         1.1450   -2.2070   -3.0250 hc        1 MOL      0.093184
    107 H48        -0.5750   -2.5070   -3.2200 hc        1 MOL      0.093184
    108 H49         0.3770   -2.4630   -4.6440 hc        1 MOL      0.093184
    109 H50        -2.4780   -1.5290   -3.2150 hc        1 MOL      0.084061
    110 H51        -2.6010    0.1390   -3.0520 hc        1 MOL      0.084061
    111 H52        -3.4060   -0.5990   -4.4810 hc        1 MOL      0.084061
    112 N10         2.3460    1.0650   -1.7910 n         1 MOL     -0.434076
    113 C35         3.4980    1.2680   -0.9580 c3        1 MOL     -0.127452
    114 C36         4.6390    1.8810   -1.8240 c         1 MOL      0.624219
    115 O17         4.4350    2.5400   -2.8070 o         1 MOL     -0.507919
    116 C37         3.2290    2.2570    0.1930 c3        1 MOL      0.534987
    117 C38         2.7660    3.6730   -0.3440 c3        1 MOL     -0.645437
    118 O18         2.1440    1.6620    0.9080 oh        1 MOL     -0.661496
    119 H53         2.0920    1.8240   -2.4050 hn        1 MOL      0.182680
    120 H54         3.7670    0.3460   -0.4360 h1        1 MOL      0.113067
    121 H55         4.0900    2.4410    0.8240 h1        1 MOL     -0.003202
    122 H56         1.2870    1.7980    0.4850 ho        1 MOL      0.391311
    123 H57         1.7580    3.6940   -0.7530 hc        1 MOL      0.167945
    124 H58         2.8210    4.3300    0.5170 hc        1 MOL      0.167945
    125 H59         3.3730    3.9950   -1.1850 hc        1 MOL      0.167945
    126 N11         5.8630    1.6880   -1.3560 n         1 MOL     -0.552521
    127 C39         7.0840    2.3470   -1.8070 c3        1 MOL     -0.056764
    128 C40         8.2730    1.3320   -1.7060 c         1 MOL      0.675751
    129 O19         8.8990    1.0870   -2.7410 o         1 MOL     -0.570273
    130 C41         7.4300    3.5860   -0.9880 c3        1 MOL      0.344395
    131 C42         8.5930    4.3700   -1.6750 c3        1 MOL     -0.479617
    132 O20         7.8010    3.3370    0.3380 oh        1 MOL     -0.634532
    133 H60         5.9520    1.1360   -0.5190 hn        1 MOL      0.255665
    134 H61         6.9720    2.5610   -2.8660 h1        1 MOL      0.117812
    135 H62         6.5900    4.2880   -0.9780 h1        1 MOL      0.032686
    136 H63         7.2010    3.5860    1.0530 ho        1 MOL      0.418738
    137 H64         8.3060    4.6200   -2.6980 hc        1 MOL      0.132375
    138 H65         8.6030    5.2840   -1.0840 hc        1 MOL      0.132375
    139 H66         9.4760    3.7300   -1.6300 hc        1 MOL      0.132375
    140 N12         8.5820    0.6950   -0.5700 n         1 MOL     -0.468255
    141 C43         9.4130   -0.5100   -0.3520 c3        1 MOL     -0.063050
    142 C44         8.8110   -1.5120    0.6830 c         1 MOL      0.506134
    143 O21         8.3850   -1.0850    1.7570 o         1 MOL     -0.475863
    144 C45        10.8420   -0.0620   -0.0540 c3        1 MOL     -0.015376
    145 C46        11.8560   -1.2490    0.2200 c3        1 MOL     -0.036579
    146 C47        13.2610   -0.7470    0.6970 c3        1 MOL      0.116713
    147 C48        14.1700   -2.0520    0.5730 c3        1 MOL      0.151576
    148 N13        15.5190   -1.8770    1.2820 n4        1 MOL     -0.524641
    149 H67         7.9730    0.9470    0.1910 hn        1 MOL      0.273959
    150 H68         9.6060   -0.9130   -1.3500 h1        1 MOL      0.082393
    151 H69        10.8990    0.6180    0.7970 hc        1 MOL      0.050000
    152 H70        11.1620    0.4750   -0.9440 hc        1 MOL      0.050000
    153 H71        11.8980   -1.7700   -0.7390 hc        1 MOL      0.008601
    154 H72        11.3720   -1.8760    0.9750 hc        1 MOL      0.008601
    155 H73        13.2230   -0.3020    1.6880 hc        1 MOL     -0.013476
    156 H74        13.6940    0.0340    0.0710 hc        1 MOL     -0.013476
    157 H75        14.2790   -2.2900   -0.4820 hx        1 MOL      0.042404
    158 H76        13.5830   -2.8610    1.0060 hx        1 MOL      0.042404
    159 H77        15.4910   -2.0830    2.2700 hn        1 MOL      0.370688
    160 H78        16.1320   -2.6130    0.9550 hn        1 MOL      0.370688
    161 H79        15.8460   -0.9690    0.9710 hn        1 MOL      0.370688
    162 N14         8.9330   -2.7970    0.3530 n         1 MOL     -0.473420
    163 C49         8.3100   -3.8480    1.1950 c3        1 MOL      0.164646
    164 C50         6.7460   -3.7620    1.1840 c         1 MOL      0.427124
    165 O22         6.1290   -3.6000    2.2480 o         1 MOL     -0.508631
    166 C51         8.8710   -5.1520    0.6250 c3        1 MOL      0.007411
    167 C52        10.3390   -5.3100    1.1830 c3        1 MOL     -0.143093
    168 C53        10.9520   -6.6250    0.6610 c         1 MOL      0.646596
    169 O23        11.0960   -6.7510   -0.6010 o         1 MOL     -0.693881
    170 O24        11.2900   -7.4670    1.4980 o         1 MOL     -0.693881
    171 H80         9.4040   -3.0160   -0.5130 hn        1 MOL      0.312975
    172 H81         8.6710   -3.7180    2.2100 h1        1 MOL      0.063052
    173 H82         8.9530   -5.1340   -0.4630 hc        1 MOL      0.025815
    174 H83         8.2580   -5.9750    1.0110 hc        1 MOL      0.025815
    175 H84        10.3190   -5.2840    2.2710 hc        1 MOL      0.010295
    176 H85        10.9530   -4.4840    0.8340 hc        1 MOL      0.010295
    177 N15         6.0780   -3.5560    0.0060 n         1 MOL     -0.372276
    178 C54         6.5200   -4.1100   -1.2910 c3        1 MOL     -0.087417
    179 H86         6.1720   -3.4650   -2.0990 h1        1 MOL      0.055168
    180 H87         7.6090   -4.1610   -1.3130 h1        1 MOL      0.055168
    181 H88         6.1060   -5.1090   -1.4210 h1        1 MOL      0.055168
    182 H89         5.1790   -3.0990    0.0270 hn        1 MOL      0.303928
    183 Ca1        -6.5690   -4.2290    0.1720 Ca        1 MOL      1.754942
    184 O25        -6.1300   -5.9530    2.2280 oh        1 MOL     -0.892728
    185 H90        -6.8820   -6.2920    2.7070 ho        1 MOL      0.434850
    186 H91        -5.4720   -5.7740    2.9060 ho        1 MOL      0.434850
    187 O26        -4.9950   -2.2900   -1.4570 oh        1 MOL     -0.892728
    188 H92        -5.6100   -2.6180   -2.1200 ho        1 MOL      0.434850
    189 H93        -4.2180   -2.8380   -1.5680 ho        1 MOL      0.434850
    190 O27        -4.3200   -5.3340   -0.7520 oh        1 MOL     -0.892728
    191 H94        -3.4670   -5.0260   -1.0480 ho        1 MOL      0.434850
    192 H95        -4.3510   -6.2530   -1.0150 ho        1 MOL      0.434850
@<TRIPOS>BOND
     1    1    2 1   
     2    1    4 1   
     3    1    5 1   
     4    1    6 1   
     5    2    3 2   
     6    2    7 1   
     7    7    8 1   
     8    7   15 1   
     9    8    9 1   
    10    8   11 1   
    11    8   16 1   
    12    9   10 2   
    13    9   19 1   
    14   11   12 1   
    15   11   17 1   
    16   11   18 1   
    17   12   13 1   
    18   12   14 1   
    19   19   20 1   
    20   19   28 1   
    21   20   21 1   
    22   20   23 1   
    23   20   29 1   
    24   21   22 2   
    25   21   41 1   
    26   23   24 1   
    27   23   30 1   
    28   23   31 1   
    29   24   25 1   
    30   24   32 1   
    31   24   33 1   
    32   25   26 1   
    33   25   34 1   
    34   25   35 1   
    35   26   27 1   
    36   26   36 1   
    37   26   37 1   
    38   27   38 1   
    39   27   39 1   
    40   27   40 1   
    41   41   42 1   
    42   41   49 1   
    43   42   43 1   
    44   42   45 1   
    45   42   50 1   
    46   43   44 2   
    47   43   53 1   
    48   45   46 1   
    49   45   51 1   
    50   45   52 1   
    51   46   47 1   
    52   46   48 1   
    53   53   54 1   
    54   53   57 1   
    55   54   55 1   
    56   54   58 1   
    57   54   59 1   
    58   55   56 2   
    59   55   60 1   
    60   60   61 1   
    61   60   68 1   
    62   61   62 1   
    63   61   64 1   
    64   61   69 1   
    65   62   63 2   
    66   62   72 1   
    67   64   65 1   
    68   64   70 1   
    69   64   71 1   
    70   65   66 1   
    71   65   67 1   
    72   72   73 1   
    73   72   76 1   
    74   73   74 1   
    75   73   77 1   
    76   73   78 1   
    77   74   75 2   
    78   74   79 1   
    79   79   80 1   
    80   79   86 1   
    81   80   81 1   
    82   80   83 1   
    83   80   87 1   
    84   81   82 2   
    85   81   93 1   
    86   83   84 1   
    87   83   85 1   
    88   83   88 1   
    89   84   90 1   
    90   84   91 1   
    91   84   92 1   
    92   85   89 1   
    93   93   94 1   
    94   93  101 1   
    95   94   95 1   
    96   94   97 1   
    97   94  102 1   
    98   95   96 2   
    99   95  112 1   
   100   97   98 1   
   101   97   99 1   
   102   97  103 1   
   103   98  100 1   
   104   98  104 1   
   105   98  105 1   
   106   99  106 1   
   107   99  107 1   
   108   99  108 1   
   109  100  109 1   
   110  100  110 1   
   111  100  111 1   
   112  112  113 1   
   113  112  119 1   
   114  113  114 1   
   115  113  116 1   
   116  113  120 1   
   117  114  115 2   
   118  114  126 1   
   119  116  117 1   
   120  116  118 1   
   121  116  121 1   
   122  117  123 1   
   123  117  124 1   
   124  117  125 1   
   125  118  122 1   
   126  126  127 1   
   127  126  133 1   
   128  127  128 1   
   129  127  130 1   
   130  127  134 1   
   131  128  129 2   
   132  128  140 1   
   133  130  131 1   
   134  130  132 1   
   135  130  135 1   
   136  131  137 1   
   137  131  138 1   
   138  131  139 1   
   139  132  136 1   
   140  140  141 1   
   141  140  149 1   
   142  141  142 1   
   143  141  144 1   
   144  141  150 1   
   145  142  143 2   
   146  142  162 1   
   147  144  145 1   
   148  144  151 1   
   149  144  152 1   
   150  145  146 1   
   151  145  153 1   
   152  145  154 1   
   153  146  147 1   
   154  146  155 1   
   155  146  156 1   
   156  147  148 1   
   157  147  157 1   
   158  147  158 1   
   159  148  159 1   
   160  148  160 1   
   161  148  161 1   
   162  162  163 1   
   163  162  171 1   
   164  163  164 1   
   165  163  166 1   
   166  163  172 1   
   167  164  165 2   
   168  164  177 1   
   169  166  167 1   
   170  166  173 1   
   171  166  174 1   
   172  167  168 1   
   173  167  175 1   
   174  167  176 1   
   175  168  169 1   
   176  168  170 1   
   177  177  178 1   
   178  177  182 1   
   179  178  179 1   
   180  178  180 1   
   181  178  181 1   
   182  184  185 1   
   183  184  186 1   
   184  187  188 1   
   185  187  189 1   
   186  190  191 1   
   187  190  192 1   
@<TRIPOS>SUBSTRUCTURE
     1 MOL         1 TEMP              0 ****  ****    0 ROOT
