@<TRIPOS>MOLECULE
MOL
  192   187     1     0     0
SMALL
resp


@<TRIPOS>ATOM
      1 C1         -2.3530    8.3610    0.1870 c3        1 MOL     -0.363588
      2 C2         -2.7180    6.9160    0.5760 c         1 MOL      0.628908
      3 O1         -2.7190    6.6180    1.7990 o         1 MOL     -0.573652
      4 H1         -2.7540    9.0490    0.9310 hc        1 MOL      0.093860
      5 H2         -1.2690    8.4640    0.1460 hc        1 MOL      0.093860
      6 H3         -2.7780    8.5940   -0.7900 hc        1 MOL      0.093860
      7 N1         -3.0600    6.0160   -0.3960 n         1 MOL     -0.500784
      8 C3         -3.2950    4.5710   -0.1310 c3        1 MOL      0.093383
      9 C4         -1.9630    3.7850   -0.1310 c         1 MOL      0.426472
     10 O2         -1.9950    2.6880    0.4990 o         1 MOL     -0.529421
     11 C5         -4.3090    4.0230   -1.1550 c3        1 MOL     -0.330847
     12 C6         -3.9960    4.3980   -2.6160 c         1 MOL      0.759453
     13 O3         -3.9840    3.5720   -3.5100 o         1 MOL     -0.729187
     14 O4         -3.9660    5.6310   -2.8990 o         1 MOL     -0.729187
     15 H4         -3.1500    6.3770   -1.3410 hn        1 MOL      0.295868
     16 H5         -3.7840    4.5780    0.8400 h1        1 MOL      0.093667
     17 H6         -5.3290    4.2730   -0.8470 hc        1 MOL      0.111470
     18 H7         -4.2710    2.9430   -1.0340 hc        1 MOL      0.111470
     19 N2         -0.8650    4.2410   -0.7760 n         1 MOL     -0.439522
     20 C7          0.3380    3.4140   -0.9440 c3        1 MOL      0.248556
     21 C8          1.1060    3.5640    0.3670 c         1 MOL      0.443510
     22 O5          1.1430    4.5930    1.0500 o         1 MOL     -0.548209
     23 C9          0.9230    3.7990   -2.2560 c3        1 MOL     -0.109853
     24 C10         0.0490    3.4410   -3.4880 c3        1 MOL      0.055139
     25 C11         0.6580    3.6960   -4.8530 c3        1 MOL     -0.100556
     26 C12        -0.0770    2.9620   -5.9610 c3        1 MOL      0.215332
     27 N3         -1.5650    3.0640   -5.8100 n4        1 MOL     -0.433076
     28 H8         -0.8370    5.1140   -1.2840 hn        1 MOL      0.262744
     29 H9          0.0790    2.3700   -1.1010 h1        1 MOL      0.081786
     30 H10         1.9150    3.3480   -2.3420 hc        1 MOL      0.044922
     31 H11         1.2050    4.8570   -2.1930 hc        1 MOL      0.044922
     32 H12        -0.8780    4.0200   -3.4740 hc        1 MOL     -0.010516
     33 H13        -0.2930    2.4060   -3.4060 hc        1 MOL     -0.010516
     34 H14         1.6790    3.3160   -4.8590 hc        1 MOL      0.048692
     35 H15         0.5090    4.7360   -5.1530 hc        1 MOL      0.048692
     36 H16         0.2420    1.9220   -6.0320 hx        1 MOL      0.031520
     37 H17         0.3040    3.3630   -6.9030 hx        1 MOL      0.031520
     38 H18        -1.8040    4.0280   -5.6370 hn        1 MOL      0.330839
     39 H19        -2.0410    2.7330   -6.6340 hn        1 MOL      0.330839
     40 H20        -1.8850    2.4420   -5.0780 hn        1 MOL      0.330839
     41 N4          1.7640    2.5310    0.7700 n         1 MOL     -0.269735
     42 C13         2.0780    1.1270    0.2980 c3        1 MOL     -0.059272
     43 C14         2.5020    1.0560   -1.2130 c         1 MOL      0.354339
     44 O6          1.6270    0.6090   -1.9680 o         1 MOL     -0.476873
     45 C15         1.0050    0.1330    0.7710 c3        1 MOL     -0.194508
     46 C16         0.6440    0.0430    2.2350 c         1 MOL      0.727968
     47 O7         -0.4050   -0.5030    2.5620 o         1 MOL     -0.705473
     48 O8          1.3330    0.5110    3.1520 o         1 MOL     -0.705473
     49 H21         2.0190    2.6410    1.7500 hn        1 MOL      0.195681
     50 H22         2.9940    1.0070    0.8900 h1        1 MOL      0.114748
     51 H23         1.1580   -0.8650    0.3710 hc        1 MOL      0.070988
     52 H24         0.0880    0.4560    0.2800 hc        1 MOL      0.070988
     53 N5          3.6860    1.4620   -1.6940 n         1 MOL     -0.440739
     54 C17         4.7500    2.0290   -0.7890 c3        1 MOL      0.126810
     55 C18         5.8520    2.8410   -1.5870 c         1 MOL      0.480464
     56 O9          5.5600    3.1980   -2.7200 o         1 MOL     -0.534469
     57 H25         3.9390    1.2620   -2.6490 hn        1 MOL      0.340260
     58 H26         5.1360    1.1980   -0.2090 h1        1 MOL      0.003592
     59 H27         4.3510    2.7030   -0.0290 h1        1 MOL      0.003592
     60 N6          7.0140    3.1700   -1.0000 n         1 MOL     -0.410537
     61 C19         7.5440    2.7160    0.2790 c3        1 MOL      0.059885
     62 C20         8.0900    1.2430    0.3280 c         1 MOL      0.655017
     63 O10         8.3560    0.6490   -0.6670 o         1 MOL     -0.463977
     64 C21         8.7300    3.5960    0.7530 c3        1 MOL     -0.243653
     65 C22         9.6730    3.8860   -0.3410 c         1 MOL      0.752791
     66 O11         9.4590    4.7710   -1.2000 o         1 MOL     -0.633888
     67 O12        10.6430    3.1820   -0.4770 o         1 MOL     -0.633888
     68 H28         7.6410    3.6430   -1.6360 hn        1 MOL      0.287098
     69 H29         6.6940    2.7670    0.9530 h1        1 MOL      0.025129
     70 H30         9.2330    3.1140    1.5950 hc        1 MOL      0.039938
     71 H31         8.2890    4.5500    1.0300 hc        1 MOL      0.039938
     72 N7          8.0630    0.5970    1.5540 n         1 MOL     -0.516662
     73 C23         8.3320   -0.8560    1.6170 c3        1 MOL     -0.108246
     74 C24         7.1660   -1.7500    1.1050 c         1 MOL      0.514597
     75 O13         7.4290   -2.4980    0.1380 o         1 MOL     -0.520054
     76 H32         7.5770    1.1100    2.2850 hn        1 MOL      0.257534
     77 H33         8.5670   -1.1840    2.6240 h1        1 MOL      0.117668
     78 H34         9.1630   -1.1310    0.9670 h1        1 MOL      0.117668
     79 N8          5.9500   -1.6220    1.6790 n         1 MOL     -0.587608
     80 C25         4.7720   -2.4760    1.4060 c3        1 MOL      0.139899
     81 C26         4.3290   -2.4130   -0.0630 c         1 MOL      0.727023
     82 O14         3.9630   -1.3680   -0.5410 o         1 MOL     -0.455002
     83 C27         3.6480   -2.0140    2.3130 c3        1 MOL      0.161910
     84 C28         3.8580   -1.8850    3.8290 c3        1 MOL     -0.417218
     85 O15         2.5780   -2.8360    2.2420 oh        1 MOL     -0.594608
     86 H35         5.8310   -0.8060    2.2570 hn        1 MOL      0.336419
     87 H36         5.0310   -3.4650    1.7820 h1        1 MOL      0.073468
     88 H37         3.3050   -1.0190    2.0230 h1        1 MOL     -0.038731
     89 H38         1.8730   -2.3820    2.7130 ho        1 MOL      0.491520
     90 H39         2.9810   -1.4430    4.3160 hc        1 MOL      0.100987
     91 H40         3.8550   -2.8380    4.3420 hc        1 MOL      0.100987
     92 H41         4.7050   -1.2740    4.1400 hc        1 MOL      0.100987
     93 N9          4.2490   -3.5540   -0.7330 n         1 MOL     -0.550334
     94 C29         3.6970   -3.6600   -2.0790 c3        1 MOL      0.012338
     95 C30         2.2440   -4.0150   -2.0410 c         1 MOL      0.471800
     96 O16         1.6710   -4.1280   -3.1050 o         1 MOL     -0.563519
     97 C31         4.5130   -4.5920   -3.0540 c3        1 MOL     -0.007053
     98 C32         4.5110   -6.0120   -2.4610 c3        1 MOL      0.057802
     99 C33         5.9390   -4.0900   -3.2340 c3        1 MOL     -0.165266
    100 C34         5.2070   -7.0360   -3.3960 c3        1 MOL     -0.293704
    101 H42         4.5370   -4.3750   -0.2220 hn        1 MOL      0.232664
    102 H43         3.7580   -2.6610   -2.5100 h1        1 MOL      0.124759
    103 H44         4.0470   -4.5260   -4.0390 hc        1 MOL      0.056561
    104 H45         3.5140   -6.3170   -2.1630 hc        1 MOL      0.023047
    105 H46         4.9230   -6.1160   -1.4650 hc        1 MOL      0.023047
    106 H47         6.3600   -3.9270   -2.2350 hc        1 MOL      0.058468
    107 H48         6.6330   -4.7250   -3.7830 hc        1 MOL      0.058468
    108 H49         5.9200   -3.1100   -3.7050 hc        1 MOL      0.058468
    109 H50         4.8360   -7.0120   -4.4220 hc        1 MOL      0.074890
    110 H51         6.2860   -6.9200   -3.3460 hc        1 MOL      0.074890
    111 H52         4.9900   -8.0120   -2.9750 hc        1 MOL      0.074890
    112 N10         1.6350   -4.1890   -0.8960 n         1 MOL     -0.101777
    113 C35         0.2970   -4.7080   -0.6530 c3        1 MOL     -0.307071
    114 C36        -0.7570   -3.6500   -1.0430 c         1 MOL      0.680905
    115 O17        -0.5390   -2.4790   -0.8360 o         1 MOL     -0.450788
    116 C37         0.2000   -4.9840    0.8770 c3        1 MOL      0.497622
    117 C38         1.2700   -5.9480    1.3830 c3        1 MOL     -0.321425
    118 O18        -1.0370   -5.6070    1.0400 oh        1 MOL     -0.653685
    119 H53         2.0900   -3.9340   -0.0390 hn        1 MOL      0.099273
    120 H54         0.1590   -5.6590   -1.1790 h1        1 MOL      0.141282
    121 H55         0.1660   -3.9770    1.3040 h1        1 MOL      0.007003
    122 H56        -1.2830   -5.4930    1.9610 ho        1 MOL      0.408696
    123 H57         2.1860   -5.7750    0.8100 hc        1 MOL      0.069005
    124 H58         1.4860   -5.6990    2.4250 hc        1 MOL      0.069005
    125 H59         1.0110   -6.9930    1.2260 hc        1 MOL      0.069005
    126 N11        -1.9480   -4.1080   -1.6030 n         1 MOL     -0.575716
    127 C39        -3.0920   -3.1290   -1.6510 c3        1 MOL      0.065120
    128 C40        -4.2510   -3.6470   -0.6770 c         1 MOL      0.526101
    129 O19        -4.1500   -4.7350   -0.0760 o         1 MOL     -0.486003
    130 C41        -3.7150   -3.0590   -3.0720 c3        1 MOL      0.305817
    131 C42        -4.5190   -4.3200   -3.4590 c3        1 MOL     -0.431464
    132 O20        -2.5290   -2.8820   -3.9190 oh        1 MOL     -0.554996
    133 H60        -2.0770   -5.0640   -1.9000 hn        1 MOL      0.336027
    134 H61        -2.8030   -2.1490   -1.3010 h1        1 MOL      0.072985
    135 H62        -4.2990   -2.1460   -3.1550 h1        1 MOL     -0.017909
    136 H63        -2.8530   -2.7910   -4.8180 ho        1 MOL      0.362220
    137 H64        -4.6610   -4.2050   -4.5410 hc        1 MOL      0.113437
    138 H65        -3.9660   -5.2450   -3.3140 hc        1 MOL      0.113437
    139 H66        -5.5180   -4.3050   -3.0230 hc        1 MOL      0.113437
    140 N12        -5.2760   -2.7770   -0.5220 n         1 MOL     -0.568089
    141 C43        -6.5360   -3.1560    0.1750 c3        1 MOL      0.179136
    142 C44        -6.7770   -2.2980    1.4690 c         1 MOL      0.569334
    143 O21        -7.4760   -2.7190    2.3820 o         1 MOL     -0.576221
    144 C45        -7.6630   -2.9730   -0.8810 c3        1 MOL     -0.007791
    145 C46        -7.7440   -1.5340   -1.4920 c3        1 MOL      0.143725
    146 C47        -8.9410   -1.6640   -2.4290 c3        1 MOL      0.081808
    147 C48        -9.1090   -0.5690   -3.4370 c3        1 MOL     -0.038949
    148 N13       -10.1340   -0.8030   -4.4260 n4        1 MOL     -0.078663
    149 H67        -5.3220   -1.9390   -1.0880 hn        1 MOL      0.323183
    150 H68        -6.5950   -4.1580    0.5930 h1        1 MOL      0.059395
    151 H69        -8.6270   -3.1060   -0.3900 hc        1 MOL     -0.015374
    152 H70        -7.4940   -3.6690   -1.6990 hc        1 MOL     -0.015374
    153 H71        -6.8130   -1.3420   -2.0220 hc        1 MOL     -0.052634
    154 H72        -7.9100   -0.7760   -0.7210 hc        1 MOL     -0.052634
    155 H73        -9.8610   -1.8950   -1.8900 hc        1 MOL     -0.004787
    156 H74        -8.7700   -2.5460   -3.0520 hc        1 MOL     -0.004787
    157 H75        -8.1820   -0.2710   -3.9430 hx        1 MOL      0.079505
    158 H76        -9.4780    0.3040   -2.9120 hx        1 MOL      0.079505
    159 H77       -10.9210   -1.2580   -3.9750 hn        1 MOL      0.191546
    160 H78       -10.3840    0.0190   -4.9590 hn        1 MOL      0.191546
    161 H79        -9.8170   -1.4730   -5.1140 hn        1 MOL      0.191546
    162 N14        -6.2800   -1.0840    1.4970 n         1 MOL     -0.335661
    163 C49        -6.4690    0.0320    2.4600 c3        1 MOL     -0.171168
    164 C50        -6.9990    1.3010    1.7950 c         1 MOL      0.569864
    165 O22        -6.8400    1.5410    0.5740 o         1 MOL     -0.546266
    166 C51        -5.1890    0.4180    3.2250 c3        1 MOL     -0.075039
    167 C52        -4.6720   -0.6720    4.1470 c3        1 MOL      0.399685
    168 C53        -3.3400   -0.4190    4.8650 c         1 MOL      0.542274
    169 O23        -2.9180    0.7190    5.2160 o         1 MOL     -0.797855
    170 O24        -2.4420   -1.3190    4.8840 o         1 MOL     -0.797855
    171 H80        -5.8080   -0.9020    0.6340 hn        1 MOL      0.204074
    172 H81        -7.2350   -0.3310    3.1530 h1        1 MOL      0.098960
    173 H82        -5.4220    1.3170    3.8050 hc        1 MOL      0.047086
    174 H83        -4.3740    0.5400    2.5130 hc        1 MOL      0.047086
    175 H84        -4.5550   -1.5900    3.5720 hc        1 MOL     -0.076704
    176 H85        -5.4250   -0.9130    4.8920 hc        1 MOL     -0.076704
    177 N15        -7.7980    2.0480    2.5810 n         1 MOL     -0.279087
    178 C54        -8.5270    3.2430    2.1940 c3        1 MOL     -0.368830
    179 H86        -8.9200    3.7320    3.0850 h1        1 MOL      0.153573
    180 H87        -7.8560    3.9250    1.6720 h1        1 MOL      0.153573
    181 H88        -9.3520    2.9700    1.5370 h1        1 MOL      0.153573
    182 H89        -8.0990    1.5960    3.4300 hn        1 MOL      0.261927
    183 Ca1        -0.3120    0.2730    5.1270 Ca        1 MOL      1.778266
    184 O25        -1.0030    2.3630    3.2290 oh        1 MOL     -0.891653
    185 H90        -0.9640    3.3150    3.2480 ho        1 MOL      0.436835
    186 H91        -1.3190    2.1470    2.3460 ho        1 MOL      0.436835
    187 O26         2.1450    0.3860    6.2880 oh        1 MOL     -0.891653
    188 H92         2.9230   -0.1650    6.3660 ho        1 MOL      0.436835
    189 H93         2.4690    1.2700    6.4200 ho        1 MOL      0.436835
    190 O27         0.5190   -2.4230    4.9000 oh        1 MOL     -0.891653
    191 H94         0.2400   -3.2960    4.6490 ho        1 MOL      0.436835
    192 H95         0.4880   -2.4270    5.8590 ho        1 MOL      0.436835
@<TRIPOS>BOND
     1    1    2 1   
     2    1    4 1   
     3    1    5 1   
     4    1    6 1   
     5    2    3 2   
     6    2    7 1   
     7    7    8 1   
     8    7   15 1   
     9    8    9 1   
    10    8   11 1   
    11    8   16 1   
    12    9   10 2   
    13    9   19 1   
    14   11   12 1   
    15   11   17 1   
    16   11   18 1   
    17   12   13 1   
    18   12   14 1   
    19   19   20 1   
    20   19   28 1   
    21   20   21 1   
    22   20   23 1   
    23   20   29 1   
    24   21   22 2   
    25   21   41 1   
    26   23   24 1   
    27   23   30 1   
    28   23   31 1   
    29   24   25 1   
    30   24   32 1   
    31   24   33 1   
    32   25   26 1   
    33   25   34 1   
    34   25   35 1   
    35   26   27 1   
    36   26   36 1   
    37   26   37 1   
    38   27   38 1   
    39   27   39 1   
    40   27   40 1   
    41   41   42 1   
    42   41   49 1   
    43   42   43 1   
    44   42   45 1   
    45   42   50 1   
    46   43   44 2   
    47   43   53 1   
    48   45   46 1   
    49   45   51 1   
    50   45   52 1   
    51   46   47 1   
    52   46   48 1   
    53   53   54 1   
    54   53   57 1   
    55   54   55 1   
    56   54   58 1   
    57   54   59 1   
    58   55   56 2   
    59   55   60 1   
    60   60   61 1   
    61   60   68 1   
    62   61   62 1   
    63   61   64 1   
    64   61   69 1   
    65   62   63 2   
    66   62   72 1   
    67   64   65 1   
    68   64   70 1   
    69   64   71 1   
    70   65   66 1   
    71   65   67 1   
    72   72   73 1   
    73   72   76 1   
    74   73   74 1   
    75   73   77 1   
    76   73   78 1   
    77   74   75 2   
    78   74   79 1   
    79   79   80 1   
    80   79   86 1   
    81   80   81 1   
    82   80   83 1   
    83   80   87 1   
    84   81   82 2   
    85   81   93 1   
    86   83   84 1   
    87   83   85 1   
    88   83   88 1   
    89   84   90 1   
    90   84   91 1   
    91   84   92 1   
    92   85   89 1   
    93   93   94 1   
    94   93  101 1   
    95   94   95 1   
    96   94   97 1   
    97   94  102 1   
    98   95   96 2   
    99   95  112 1   
   100   97   98 1   
   101   97   99 1   
   102   97  103 1   
   103   98  100 1   
   104   98  104 1   
   105   98  105 1   
   106   99  106 1   
   107   99  107 1   
   108   99  108 1   
   109  100  109 1   
   110  100  110 1   
   111  100  111 1   
   112  112  113 1   
   113  112  119 1   
   114  113  114 1   
   115  113  116 1   
   116  113  120 1   
   117  114  115 2   
   118  114  126 1   
   119  116  117 1   
   120  116  118 1   
   121  116  121 1   
   122  117  123 1   
   123  117  124 1   
   124  117  125 1   
   125  118  122 1   
   126  126  127 1   
   127  126  133 1   
   128  127  128 1   
   129  127  130 1   
   130  127  134 1   
   131  128  129 2   
   132  128  140 1   
   133  130  131 1   
   134  130  132 1   
   135  130  135 1   
   136  131  137 1   
   137  131  138 1   
   138  131  139 1   
   139  132  136 1   
   140  140  141 1   
   141  140  149 1   
   142  141  142 1   
   143  141  144 1   
   144  141  150 1   
   145  142  143 2   
   146  142  162 1   
   147  144  145 1   
   148  144  151 1   
   149  144  152 1   
   150  145  146 1   
   151  145  153 1   
   152  145  154 1   
   153  146  147 1   
   154  146  155 1   
   155  146  156 1   
   156  147  148 1   
   157  147  157 1   
   158  147  158 1   
   159  148  159 1   
   160  148  160 1   
   161  148  161 1   
   162  162  163 1   
   163  162  171 1   
   164  163  164 1   
   165  163  166 1   
   166  163  172 1   
   167  164  165 2   
   168  164  177 1   
   169  166  167 1   
   170  166  173 1   
   171  166  174 1   
   172  167  168 1   
   173  167  175 1   
   174  167  176 1   
   175  168  169 1   
   176  168  170 1   
   177  177  178 1   
   178  177  182 1   
   179  178  179 1   
   180  178  180 1   
   181  178  181 1   
   182  184  185 1   
   183  184  186 1   
   184  187  188 1   
   185  187  189 1   
   186  190  191 1   
   187  190  192 1   
@<TRIPOS>SUBSTRUCTURE
     1 MOL         1 TEMP              0 ****  ****    0 ROOT
