@<TRIPOS>MOLECULE
MOL
  182   178     1     0     0
SMALL
resp


@<TRIPOS>ATOM
      1 C1          1.8470   -5.0270    6.4950 c3        1 MOL     -0.387918
      2 C2          1.8590   -4.6460    5.0040 c         1 MOL      0.646769
      3 O1          1.4600   -5.4100    4.1540 o         1 MOL     -0.555212
      4 H1          2.2900   -6.0150    6.6200 hc        1 MOL      0.106767
      5 H2          2.4240   -4.2960    7.0610 hc        1 MOL      0.106767
      6 H3          0.8200   -5.0410    6.8590 hc        1 MOL      0.106767
      7 N1          2.5820   -3.5770    4.6060 n         1 MOL     -0.396331
      8 C3          2.6390   -3.0140    3.2460 c3        1 MOL     -0.241165
      9 C4          2.9850   -4.0700    2.1580 c         1 MOL      0.750654
     10 O2          4.0470   -4.7190    2.2010 o         1 MOL     -0.547739
     11 C5          3.5860   -1.8060    3.1220 c3        1 MOL      0.112578
     12 C6          3.3730   -1.0510    1.8370 c         1 MOL      0.617092
     13 O3          3.5860    0.1600    1.8510 o         1 MOL     -0.719439
     14 O4          3.0790   -1.6140    0.7570 o         1 MOL     -0.719439
     15 H4          3.1360   -3.1640    5.3490 hn        1 MOL      0.283775
     16 H5          1.5760   -2.8600    3.0910 h1        1 MOL     -0.033675
     17 H6          4.6150   -2.1490    3.2040 hc        1 MOL      0.008417
     18 H7          3.3830   -1.1030    3.9310 hc        1 MOL      0.008417
     19 N2          2.0470   -4.3180    1.2240 n         1 MOL     -0.397950
     20 C7          2.1400   -5.3400    0.1600 c3        1 MOL     -0.112863
     21 C8          3.4420   -5.2390   -0.7140 c         1 MOL      0.549158
     22 O5          4.0580   -6.2630   -0.9560 o         1 MOL     -0.537967
     23 C9          0.7750   -5.4920   -0.6700 c3        1 MOL     -0.185706
     24 C10         0.6900   -6.5880   -1.7060 c3        1 MOL      0.136306
     25 C11        -0.5550   -6.4550   -2.5870 c3        1 MOL     -0.090701
     26 C12        -0.3830   -7.5020   -3.7260 c3        1 MOL      0.025522
     27 N3         -1.5750   -7.9860   -4.3210 n4        1 MOL     -0.009944
     28 H8          1.3690   -3.5760    1.1490 hn        1 MOL      0.281199
     29 H9          2.2330   -6.2540    0.7540 h1        1 MOL      0.144687
     30 H10         0.5660   -4.5270   -1.1360 hc        1 MOL      0.052155
     31 H11        -0.0560   -5.6870    0.0090 hc        1 MOL      0.052155
     32 H12         0.7940   -7.5880   -1.2920 hc        1 MOL      0.012361
     33 H13         1.6140   -6.5260   -2.2920 hc        1 MOL      0.012361
     34 H14        -0.6750   -5.5010   -3.0960 hc        1 MOL      0.041913
     35 H15        -1.4270   -6.6910   -1.9710 hc        1 MOL      0.041913
     36 H16         0.0680   -8.3520   -3.2020 hx        1 MOL      0.051583
     37 H17         0.3100   -7.1080   -4.4540 hx        1 MOL      0.051583
     38 H18        -1.6580   -8.9880   -4.4290 hn        1 MOL      0.189246
     39 H19        -2.4420   -7.5830   -3.9910 hn        1 MOL      0.189246
     40 H20        -1.4790   -7.7040   -5.2940 hn        1 MOL      0.189246
     41 N4          3.8020   -4.0080   -1.1240 n         1 MOL     -0.306500
     42 C13         5.0190   -3.7410   -1.9980 c3        1 MOL      0.036636
     43 C14         6.2330   -3.1580   -1.2400 c         1 MOL      0.391872
     44 O6          7.4020   -3.3960   -1.6130 o         1 MOL     -0.513194
     45 C15         4.7440   -2.9200   -3.2840 c3        1 MOL     -0.329792
     46 C16         4.0320   -1.5550   -3.0930 c         1 MOL      0.813176
     47 O7          3.9710   -1.0170   -2.0000 o         1 MOL     -0.740888
     48 O8          3.4170   -1.1940   -4.1160 o         1 MOL     -0.740888
     49 H21         3.3270   -3.1710   -0.8070 hn        1 MOL      0.212175
     50 H22         5.3660   -4.7210   -2.3370 h1        1 MOL      0.093934
     51 H23         4.0120   -3.5440   -3.8170 hc        1 MOL      0.091947
     52 H24         5.6000   -2.8020   -3.9610 hc        1 MOL      0.091947
     53 N5          5.9460   -2.4750   -0.1230 n         1 MOL     -0.097159
     54 C17         6.9750   -1.7820    0.6550 c3        1 MOL     -0.227578
     55 C18         7.3080   -0.3470    0.2550 c         1 MOL      0.658837
     56 O9          8.1830    0.2520    0.8320 o         1 MOL     -0.572545
     57 H25         4.9570   -2.3660    0.0740 hn        1 MOL      0.056378
     58 H26         7.8840   -2.3650    0.5080 h1        1 MOL      0.118128
     59 H27         6.7450   -1.8350    1.7130 h1        1 MOL      0.118128
     60 N6          6.5350    0.1650   -0.6840 n         1 MOL     -0.316737
     61 C19         6.7840    1.4150   -1.4530 c3        1 MOL     -0.044264
     62 C20         5.5550    2.3490   -1.4100 c         1 MOL      0.672950
     63 O10         4.4660    1.8920   -1.0080 o         1 MOL     -0.668156
     64 C21         7.1020    1.0560   -2.9130 c3        1 MOL     -0.290843
     65 C22         8.2630    0.0710   -2.9960 c         1 MOL      0.611963
     66 N7          8.2010   -1.0040   -3.7310 n         1 MOL     -0.757728
     67 O11         9.2890    0.1490   -2.3040 o         1 MOL     -0.516268
     68 H28         5.7980   -0.3430   -1.1610 hn        1 MOL      0.320691
     69 H29         7.5670    1.9850   -0.9620 h1        1 MOL      0.076379
     70 H30         7.3860    1.9340   -3.4870 hc        1 MOL      0.080049
     71 H31         6.2380    0.6560   -3.4450 hc        1 MOL      0.080049
     72 H32         7.5790   -1.0680   -4.5300 hn        1 MOL      0.362244
     73 H33         8.9930   -1.6270   -3.7070 hn        1 MOL      0.362244
     74 N8          5.7020    3.5400   -1.8830 n         1 MOL     -0.391098
     75 C23         4.6290    4.5640   -1.8810 c3        1 MOL     -0.179202
     76 C24         3.8880    4.8880   -0.5690 c         1 MOL      0.640825
     77 O12         4.5320    5.0300    0.4890 o         1 MOL     -0.508444
     78 H34         6.6670    3.7550   -2.0970 hn        1 MOL      0.322678
     79 H35         3.8820    4.1490   -2.5580 h1        1 MOL      0.105350
     80 H36         4.9420    5.5520   -2.2190 h1        1 MOL      0.105350
     81 N9          2.5480    4.9870   -0.6090 n         1 MOL     -0.649098
     82 C25         1.6460    5.1210    0.5560 c3        1 MOL      0.322815
     83 C26         1.3960    3.8830    1.3040 c         1 MOL      0.471601
     84 O13         2.1000    2.9430    1.0780 o         1 MOL     -0.420446
     85 C27         0.3360    5.7220   -0.0130 c3        1 MOL     -0.279808
     86 C28         0.3760    7.1650   -0.4460 ca        1 MOL      0.173756
     87 C29         0.6570    7.5590   -1.7630 ca        1 MOL     -0.229263
     88 C30         0.1860    8.1280    0.5850 ca        1 MOL     -0.229263
     89 C31         0.8950    8.9220   -2.0590 ca        1 MOL     -0.183872
     90 C32         0.3490    9.4510    0.2530 ca        1 MOL     -0.183872
     91 C33         0.6900    9.8880   -1.0440 ca        1 MOL      0.275781
     92 O14         0.8550   11.1970   -1.3380 oh        1 MOL     -0.475175
     93 H37         2.1020    4.6620   -1.4660 hn        1 MOL      0.332397
     94 H38         2.0680    5.8080    1.2920 h1        1 MOL      0.043574
     95 H39        -0.3880    5.6610    0.7880 hc        1 MOL      0.062439
     96 H40        -0.0190    5.0590   -0.8130 hc        1 MOL      0.062439
     97 H41         0.8030    6.8400   -2.5600 ha        1 MOL      0.144391
     98 H42         0.0530    7.8540    1.6210 ha        1 MOL      0.144391
     99 H43         1.1680    9.2360   -3.0550 ha        1 MOL      0.136865
    100 H44         0.0780   10.2210    0.9660 ha        1 MOL      0.136865
    101 H45         0.8130   11.8240   -0.6180 ho        1 MOL      0.376412
    102 N10         0.5190    3.7890    2.2690 n         1 MOL     -0.595850
    103 C34         0.2220    2.5170    3.0600 c3        1 MOL      0.282227
    104 C35        -0.2850    1.3800    2.0980 c         1 MOL      0.223561
    105 O15         0.4910    0.8860    1.2470 o         1 MOL     -0.554201
    106 C36         1.4090    2.1090    3.9900 c3        1 MOL      0.180947
    107 C37         1.2900    0.6990    4.6800 c3        1 MOL     -0.090229
    108 C38         2.0040    3.1870    4.8300 c3        1 MOL     -0.367380
    109 C39         0.1160    0.4120    5.5600 c3        1 MOL     -0.181801
    110 H46        -0.0080    4.6260    2.4650 hn        1 MOL      0.303323
    111 H47        -0.6240    2.7180    3.7110 h1        1 MOL      0.007971
    112 H48         2.2330    2.0140    3.2830 hc        1 MOL      0.065669
    113 H49         2.1950    0.4560    5.2530 hc        1 MOL      0.084479
    114 H50         1.2310   -0.0960    3.9310 hc        1 MOL      0.084479
    115 H51         2.8510    2.7050    5.3170 hc        1 MOL      0.090704
    116 H52         2.3510    3.9990    4.1880 hc        1 MOL      0.090704
    117 H53         1.1450    3.4610    5.4480 hc        1 MOL      0.090704
    118 H54         0.1150   -0.6430    5.8300 hc        1 MOL      0.024746
    119 H55         0.1710    1.0660    6.4310 hc        1 MOL      0.024746
    120 H56        -0.8120    0.5910    5.0130 hc        1 MOL      0.024746
    121 N11        -1.4380    0.8050    2.3660 n         1 MOL     -0.321418
    122 C40        -1.8460   -0.3900    1.7270 c3        1 MOL      0.340936
    123 C41        -3.2120   -0.3750    0.9920 c         1 MOL      0.575099
    124 O16        -3.2990   -0.9590   -0.0590 o         1 MOL     -0.552141
    125 C42        -2.0120   -1.5920    2.6220 c3        1 MOL     -0.034284
    126 O17        -0.7780   -1.8150    3.2170 oh        1 MOL     -0.471854
    127 H57        -2.0220    1.2730    3.0460 hn        1 MOL      0.255041
    128 H58        -1.0870   -0.6500    0.9950 h1        1 MOL      0.019892
    129 H59        -2.2210   -2.4590    1.9990 h1        1 MOL      0.057099
    130 H60        -2.7940   -1.3570    3.3450 h1        1 MOL      0.057099
    131 H61        -0.6970   -2.7630    3.2950 ho        1 MOL      0.388966
    132 N12        -4.2630    0.3650    1.5410 n         1 MOL     -0.856405
    133 C43        -5.5660    0.3950    0.8860 c3        1 MOL      0.455205
    134 C44        -5.5540    1.4280   -0.2760 c         1 MOL      0.597939
    135 O18        -4.7990    2.3990   -0.2940 o         1 MOL     -0.604026
    136 C45        -6.7060    0.5350    1.8990 c3        1 MOL     -0.345536
    137 H62        -4.1720    0.7490    2.4730 hn        1 MOL      0.370286
    138 H63        -5.6650   -0.5550    0.3470 h1        1 MOL      0.046211
    139 H64        -7.6840    0.5770    1.4130 hc        1 MOL      0.093761
    140 H65        -6.5930   -0.3740    2.4810 hc        1 MOL      0.093761
    141 H66        -6.6170    1.5070    2.3890 hc        1 MOL      0.093761
    142 N13        -6.3960    1.3090   -1.2400 n         1 MOL     -0.596660
    143 C46        -7.4140    0.2750   -1.4980 c3        1 MOL      0.377824
    144 C47        -8.7730    0.7270   -2.1730 c         1 MOL      0.295940
    145 O19        -8.7130    1.5830   -3.0760 o         1 MOL     -0.518122
    146 C48        -6.7670   -0.7630   -2.3550 c3        1 MOL     -0.128496
    147 H67        -6.2570    2.0720   -1.8950 hn        1 MOL      0.329631
    148 H68        -7.7040   -0.1890   -0.5620 h1        1 MOL     -0.121746
    149 H69        -5.7760   -1.0130   -1.9610 hc        1 MOL      0.040133
    150 H70        -7.3250   -1.7000   -2.2860 hc        1 MOL      0.040133
    151 H71        -6.5020   -0.4430   -3.3620 hc        1 MOL      0.040133
    152 N14        -9.9700    0.3230   -1.8250 n         1 MOL     -0.331673
    153 C49       -10.2090   -0.8160   -0.9840 c3        1 MOL     -0.001997
    154 C50       -10.2340   -0.4660    0.5090 c         1 MOL      0.594003
    155 O20        -9.7680   -1.2170    1.3610 o         1 MOL     -0.561689
    156 C51       -11.5010   -1.5440   -1.3680 c3        1 MOL     -0.158345
    157 C52       -12.8490   -0.8980   -0.9510 c3        1 MOL     -0.094560
    158 C53       -14.0650   -1.7400   -1.4850 c         1 MOL      0.741152
    159 O21       -13.9200   -2.8210   -2.1110 o         1 MOL     -0.662741
    160 O22       -15.1530   -1.2860   -1.2850 o         1 MOL     -0.662741
    161 H72       -10.7610    0.6650   -2.3510 hn        1 MOL      0.324819
    162 H73        -9.4120   -1.5540   -1.1330 h1        1 MOL      0.071012
    163 H74       -11.5700   -2.5300   -0.9050 hc        1 MOL      0.055364
    164 H75       -11.7110   -1.6270   -2.4390 hc        1 MOL      0.055364
    165 H76       -12.9930    0.1460   -1.2490 hc        1 MOL      0.006281
    166 H77       -13.0280   -0.9520    0.1260 hc        1 MOL      0.006281
    167 N15       -10.6870    0.7660    0.8180 n         1 MOL     -0.324556
    168 C54       -10.8640    1.2940    2.1700 c3        1 MOL     -0.158286
    169 H78       -10.9190    0.4670    2.8780 h1        1 MOL      0.092631
    170 H79       -10.0180    1.9330    2.4250 h1        1 MOL      0.092631
    171 H80       -11.7860    1.8730    2.2170 h1        1 MOL      0.092631
    172 H81       -11.0010    1.3690    0.0770 hn        1 MOL      0.239105
    173 Ca1         2.2690    0.4750   -0.5330 Ca        1 MOL      1.764941
    174 O23         0.4520   -1.3820   -1.5380 oh        1 MOL     -0.856420
    175 H82        -0.3380   -1.8660   -1.3070 ho        1 MOL      0.415627
    176 H83         0.6240   -1.6250   -2.4510 ho        1 MOL      0.415627
    177 O24         0.4100    2.1480   -1.3450 oh        1 MOL     -0.856420
    178 H84        -0.1420    2.4790   -0.6260 ho        1 MOL      0.415627
    179 H85        -0.0960    2.3210   -2.1330 ho        1 MOL      0.415627
    180 O25         2.1380    0.9600   -3.2360 oh        1 MOL     -0.856420
    181 H86         1.6680    1.2700   -4.0130 ho        1 MOL      0.415627
    182 H87         2.5250    0.1320   -3.5090 ho        1 MOL      0.415627
@<TRIPOS>BOND
     1    1    2 1   
     2    1    4 1   
     3    1    5 1   
     4    1    6 1   
     5    2    3 2   
     6    2    7 1   
     7    7    8 1   
     8    7   15 1   
     9    8    9 1   
    10    8   11 1   
    11    8   16 1   
    12    9   10 2   
    13    9   19 1   
    14   11   12 1   
    15   11   17 1   
    16   11   18 1   
    17   12   13 1   
    18   12   14 1   
    19   19   20 1   
    20   19   28 1   
    21   20   21 1   
    22   20   23 1   
    23   20   29 1   
    24   21   22 2   
    25   21   41 1   
    26   23   24 1   
    27   23   30 1   
    28   23   31 1   
    29   24   25 1   
    30   24   32 1   
    31   24   33 1   
    32   25   26 1   
    33   25   34 1   
    34   25   35 1   
    35   26   27 1   
    36   26   36 1   
    37   26   37 1   
    38   27   38 1   
    39   27   39 1   
    40   27   40 1   
    41   41   42 1   
    42   41   49 1   
    43   42   43 1   
    44   42   45 1   
    45   42   50 1   
    46   43   44 2   
    47   43   53 1   
    48   45   46 1   
    49   45   51 1   
    50   45   52 1   
    51   46   47 1   
    52   46   48 1   
    53   53   54 1   
    54   53   57 1   
    55   54   55 1   
    56   54   58 1   
    57   54   59 1   
    58   55   56 2   
    59   55   60 1   
    60   60   61 1   
    61   60   68 1   
    62   61   62 1   
    63   61   64 1   
    64   61   69 1   
    65   62   63 2   
    66   62   74 1   
    67   64   65 1   
    68   64   70 1   
    69   64   71 1   
    70   65   66 1   
    71   65   67 2   
    72   66   72 1   
    73   66   73 1   
    74   74   75 1   
    75   74   78 1   
    76   75   76 1   
    77   75   79 1   
    78   75   80 1   
    79   76   77 2   
    80   76   81 1   
    81   81   82 1   
    82   81   93 1   
    83   82   83 1   
    84   82   85 1   
    85   82   94 1   
    86   83   84 2   
    87   83  102 1   
    88   85   86 1   
    89   85   95 1   
    90   85   96 1   
    91   86   87 ar  
    92   86   88 ar  
    93   87   89 ar  
    94   87   97 1   
    95   88   90 ar  
    96   88   98 1   
    97   89   91 ar  
    98   89   99 1   
    99   90   91 ar  
   100   90  100 1   
   101   91   92 1   
   102   92  101 1   
   103  102  103 1   
   104  102  110 1   
   105  103  104 1   
   106  103  106 1   
   107  103  111 1   
   108  104  105 2   
   109  104  121 1   
   110  106  107 1   
   111  106  108 1   
   112  106  112 1   
   113  107  109 1   
   114  107  113 1   
   115  107  114 1   
   116  108  115 1   
   117  108  116 1   
   118  108  117 1   
   119  109  118 1   
   120  109  119 1   
   121  109  120 1   
   122  121  122 1   
   123  121  127 1   
   124  122  123 1   
   125  122  125 1   
   126  122  128 1   
   127  123  124 2   
   128  123  132 1   
   129  125  126 1   
   130  125  129 1   
   131  125  130 1   
   132  126  131 1   
   133  132  133 1   
   134  132  137 1   
   135  133  134 1   
   136  133  136 1   
   137  133  138 1   
   138  134  135 2   
   139  134  142 1   
   140  136  139 1   
   141  136  140 1   
   142  136  141 1   
   143  142  143 1   
   144  142  147 1   
   145  143  144 1   
   146  143  146 1   
   147  143  148 1   
   148  144  145 2   
   149  144  152 1   
   150  146  149 1   
   151  146  150 1   
   152  146  151 1   
   153  152  153 1   
   154  152  161 1   
   155  153  154 1   
   156  153  156 1   
   157  153  162 1   
   158  154  155 2   
   159  154  167 1   
   160  156  157 1   
   161  156  163 1   
   162  156  164 1   
   163  157  158 1   
   164  157  165 1   
   165  157  166 1   
   166  158  159 1   
   167  158  160 1   
   168  167  168 1   
   169  167  172 1   
   170  168  169 1   
   171  168  170 1   
   172  168  171 1   
   173  174  175 1   
   174  174  176 1   
   175  177  178 1   
   176  177  179 1   
   177  180  181 1   
   178  180  182 1   
@<TRIPOS>SUBSTRUCTURE
     1 MOL         1 TEMP              0 ****  ****    0 ROOT
