@<TRIPOS>MOLECULE
MOL
  175   173     1     0     0
SMALL
resp


@<TRIPOS>ATOM
      1 C1         -6.4220    7.5960    2.5390 c3        1 MOL     -0.442011
      2 C2         -7.2180    7.1150    1.2920 c         1 MOL      0.639288
      3 O1         -7.0830    7.5890    0.1570 o         1 MOL     -0.572661
      4 H1         -6.6170    6.9240    3.3750 hc        1 MOL      0.113935
      5 H2         -5.3570    7.5950    2.3130 hc        1 MOL      0.113935
      6 H3         -6.7370    8.6050    2.8050 hc        1 MOL      0.113935
      7 N1         -8.0240    6.0570    1.4130 n         1 MOL     -0.486377
      8 C3         -8.7250    5.4690    0.2580 c3        1 MOL      0.084820
      9 C4         -7.8060    4.7330   -0.7080 c         1 MOL      0.561185
     10 O2         -8.0520    4.5730   -1.9050 o         1 MOL     -0.508419
     11 C5         -9.8310    4.5300    0.7700 c3        1 MOL     -0.382735
     12 C6        -10.6740    3.8430   -0.2740 c         1 MOL      0.742145
     13 O3        -10.5440    2.5830   -0.3610 o         1 MOL     -0.728278
     14 O4        -11.4000    4.4630   -1.0750 o         1 MOL     -0.728278
     15 H4         -8.2210    5.6590    2.3180 hn        1 MOL      0.291124
     16 H5         -9.1200    6.3300   -0.2890 h1        1 MOL      0.101874
     17 H6        -10.5830    5.1310    1.2850 hc        1 MOL      0.060289
     18 H7         -9.4810    3.8900    1.5720 hc        1 MOL      0.060289
     19 N2         -6.5900    4.4100   -0.2110 n         1 MOL     -0.414088
     20 C7         -5.6020    3.4230   -0.7100 c3        1 MOL      0.230368
     21 C8         -5.0200    2.6010    0.4740 c         1 MOL      0.526930
     22 O5         -4.6230    3.0870    1.5580 o         1 MOL     -0.542687
     23 C9         -4.5670    4.0600   -1.6800 c3        1 MOL     -0.244882
     24 H8         -6.3550    4.7150    0.7270 hn        1 MOL      0.202811
     25 H9         -6.1520    2.7120   -1.3290 h1        1 MOL      0.049770
     26 H10        -3.9420    4.7760   -1.1370 hc        1 MOL      0.072367
     27 H11        -3.8310    3.3420   -2.0370 hc        1 MOL      0.072367
     28 H12        -5.0380    4.6370   -2.4890 hc        1 MOL      0.072367
     29 N3         -4.9310    1.2360    0.3770 n         1 MOL     -0.451016
     30 C10        -5.4430    0.3920   -0.6520 c3        1 MOL     -0.133852
     31 C11        -5.6690   -1.0780   -0.0980 c         1 MOL      0.494710
     32 O6         -4.7650   -1.5810    0.6240 o         1 MOL     -0.507487
     33 C12        -4.6620    0.3720   -1.9100 c3        1 MOL      0.044730
     34 C13        -3.2040    0.0090   -1.8270 c         1 MOL      0.586059
     35 O7         -2.4490    0.7680   -1.1860 o         1 MOL     -0.705031
     36 O8         -2.7530   -1.0620   -2.2240 o         1 MOL     -0.705031
     37 H13        -4.2590    0.8550    1.0230 hn        1 MOL      0.310078
     38 H14        -6.4110    0.8380   -0.8720 h1        1 MOL      0.088231
     39 H15        -4.7250    1.3700   -2.3400 hc        1 MOL     -0.002311
     40 H16        -5.0840   -0.3110   -2.6410 hc        1 MOL     -0.002311
     41 N4         -6.6370   -1.8930   -0.5720 n         1 MOL     -0.342005
     42 C14        -7.0980   -3.1770   -0.0580 c3        1 MOL      0.007944
     43 C15        -7.0460   -4.2800   -1.1280 c         1 MOL      0.512796
     44 O9         -8.1130   -4.9030   -1.4700 o         1 MOL     -0.548295
     45 H17        -7.2830   -1.4560   -1.2150 hn        1 MOL      0.298926
     46 H18        -8.1740   -3.0360    0.0670 h1        1 MOL      0.064042
     47 H19        -6.5830   -3.4900    0.8450 h1        1 MOL      0.064042
     48 N5         -5.8730   -4.6620   -1.6690 n         1 MOL     -0.553997
     49 C16        -4.5460   -4.3380   -1.1520 c3        1 MOL      0.192748
     50 C17        -4.2200   -4.9570    0.2590 c         1 MOL      0.518985
     51 O10        -4.2190   -6.1940    0.3990 o         1 MOL     -0.564892
     52 C18        -3.5520   -4.5800   -2.2290 c3        1 MOL     -0.276081
     53 C19        -2.1830   -4.1990   -1.8830 c         1 MOL      0.552200
     54 N6         -1.1960   -4.5660   -2.7420 n         1 MOL     -0.709880
     55 O11        -1.8880   -3.5820   -0.8660 o         1 MOL     -0.531765
     56 H20        -6.0190   -5.3580   -2.3910 hn        1 MOL      0.325957
     57 H21        -4.5960   -3.2650   -0.9430 h1        1 MOL      0.051916
     58 H22        -3.8730   -4.1600   -3.1820 hc        1 MOL      0.104043
     59 H23        -3.4800   -5.6590   -2.3150 hc        1 MOL      0.104043
     60 H24        -1.3120   -5.2970   -3.4230 hn        1 MOL      0.349297
     61 H25        -0.3220   -4.0620   -2.6590 hn        1 MOL      0.349297
     62 N7         -3.8510   -4.2040    1.2650 n         1 MOL     -0.149313
     63 C20        -3.4280   -4.6840    2.5400 c3        1 MOL     -0.235447
     64 C21        -1.9020   -5.1730    2.6050 c         1 MOL      0.519520
     65 O12        -1.5850   -5.8990    3.6000 o         1 MOL     -0.582439
     66 H26        -3.7870   -3.2050    1.1150 hn        1 MOL      0.163088
     67 H27        -3.9470   -5.5760    2.8760 h1        1 MOL      0.110976
     68 H28        -3.6840   -3.9590    3.3080 h1        1 MOL      0.110976
     69 N8         -1.0860   -4.8150    1.6220 n         1 MOL     -0.300645
     70 C22         0.4290   -5.0950    1.6500 c3        1 MOL     -0.015340
     71 C23         1.2610   -3.7780    1.4870 c         1 MOL      0.349301
     72 O13         0.8350   -2.8160    0.8460 o         1 MOL     -0.508163
     73 C24         0.7610   -6.3560    0.7970 c3        1 MOL      0.634343
     74 C25         0.3140   -7.6300    1.5140 c3        1 MOL     -0.369624
     75 O14         0.3930   -6.4220   -0.5410 oh        1 MOL     -0.726487
     76 H29        -1.5240   -4.3610    0.8240 hn        1 MOL      0.204267
     77 H30         0.7090   -5.4280    2.6480 h1        1 MOL      0.048387
     78 H31         1.8520   -6.3290    0.7530 h1        1 MOL     -0.126735
     79 H32         0.8170   -5.6700   -0.9560 ho        1 MOL      0.525963
     80 H33         0.8600   -7.6570    2.4640 hc        1 MOL      0.080830
     81 H34        -0.7600   -7.5610    1.6350 hc        1 MOL      0.080830
     82 H35         0.6110   -8.4900    0.9070 hc        1 MOL      0.080830
     83 N9          2.4710   -3.7780    2.0430 n         1 MOL     -0.302174
     84 C26         3.4300   -2.6410    2.0730 c3        1 MOL      0.321741
     85 C27         4.1770   -2.8090    0.7190 c         1 MOL      0.248085
     86 O15         5.2670   -3.4260    0.7440 o         1 MOL     -0.573919
     87 C28         4.2130   -2.6970    3.4300 c3        1 MOL      0.013239
     88 C29         5.4510   -1.9100    3.5190 c3        1 MOL     -0.034347
     89 C30         3.2170   -2.4600    4.6880 c3        1 MOL     -0.253597
     90 C31         5.2730   -0.4230    3.0300 c3        1 MOL     -0.228067
     91 H36         2.7410   -4.5930    2.5720 hn        1 MOL      0.224000
     92 H37         2.8910   -1.6970    2.0450 h1        1 MOL      0.008306
     93 H38         4.5150   -3.7320    3.5940 hc        1 MOL     -0.006130
     94 H39         6.2530   -2.2490    2.8600 hc        1 MOL      0.035296
     95 H40         5.8690   -1.8500    4.5160 hc        1 MOL      0.035296
     96 H41         3.6880   -2.5980    5.6660 hc        1 MOL      0.066030
     97 H42         2.7930   -1.4540    4.6960 hc        1 MOL      0.066030
     98 H43         2.3510   -3.1100    4.6790 hc        1 MOL      0.066030
     99 H44         4.6650    0.1440    3.7350 hc        1 MOL      0.053419
    100 H45         6.2640    0.0110    3.0640 hc        1 MOL      0.053419
    101 H46         4.8470   -0.3550    2.0250 hc        1 MOL      0.053419
    102 N10         3.6820   -2.3740   -0.4190 n         1 MOL      0.000895
    103 C32         4.3460   -2.4830   -1.7210 c3        1 MOL      0.221519
    104 C33         5.4840   -1.4490   -2.0480 c         1 MOL      0.340015
    105 O16         6.2210   -1.5950   -3.0710 o         1 MOL     -0.537774
    106 C34         3.3400   -2.6800   -2.8590 c3        1 MOL     -0.387637
    107 C35         2.0060   -3.2670   -2.3570 c         1 MOL      0.969019
    108 O17         1.9610   -4.4520   -1.9330 o         1 MOL     -0.831383
    109 O18         0.9320   -2.6590   -2.3530 o         1 MOL     -0.831383
    110 H47         2.8490   -1.8200   -0.4330 hn        1 MOL     -0.015289
    111 H48         4.8150   -3.4670   -1.7130 h1        1 MOL      0.060220
    112 H49         3.7470   -3.4040   -3.5750 hc        1 MOL      0.081987
    113 H50         3.0950   -1.7120   -3.2840 hc        1 MOL      0.081987
    114 N11         5.6780   -0.3830   -1.2970 n         1 MOL     -0.259955
    115 C36         6.6080    0.6750   -1.5380 c3        1 MOL      0.057578
    116 C37         6.2470    1.9920   -0.8580 c         1 MOL      0.387496
    117 O19         6.0890    1.9790    0.3490 o         1 MOL     -0.457925
    118 C38         7.9280    0.1970   -0.9920 c3        1 MOL     -0.272597
    119 C39         9.0620    1.1740   -0.8650 ca        1 MOL      0.076719
    120 C40         9.3760    1.7220    0.3970 ca        1 MOL     -0.113900
    121 C41         9.7120    1.6520   -2.0170 ca        1 MOL     -0.113900
    122 C42        10.5770    2.4900    0.5420 ca        1 MOL     -0.127841
    123 C43        10.7970    2.5060   -1.9090 ca        1 MOL     -0.127841
    124 C44        11.2950    2.8790   -0.6300 ca        1 MOL     -0.143185
    125 H51         5.0000   -0.1830   -0.5730 hn        1 MOL      0.247484
    126 H52         6.7300    0.9020   -2.6000 h1        1 MOL      0.078865
    127 H53         8.2770   -0.6280   -1.6110 hc        1 MOL      0.130616
    128 H54         7.7400   -0.2190    0.0050 hc        1 MOL      0.130616
    129 H55         8.8910    1.2750    1.2500 ha        1 MOL      0.111120
    130 H56         9.3570    1.2140   -2.9440 ha        1 MOL      0.111120
    131 H57        10.8870    2.9110    1.4890 ha        1 MOL      0.107290
    132 H58        11.3620    2.8110   -2.7780 ha        1 MOL      0.107290
    133 H59        12.0820    3.6150   -0.5610 ha        1 MOL      0.115799
    134 N12         6.2440    3.1820   -1.5790 n         1 MOL     -0.155955
    135 C45         6.2060    4.4810   -0.9920 c3        1 MOL      0.067469
    136 C46         5.0720    4.8190   -0.0310 c         1 MOL      0.340194
    137 O20         5.0780    5.9120    0.5180 o         1 MOL     -0.520266
    138 C47         6.3710    5.4790   -2.1410 c3        1 MOL     -0.135714
    139 C48         7.2520    4.6740   -3.1420 c3        1 MOL      0.051133
    140 C49         6.5350    3.3210   -3.0210 c3        1 MOL     -0.188136
    141 H60         7.0300    4.4240   -0.2880 h1        1 MOL      0.087391
    142 H61         5.4490    5.7360   -2.6550 hc        1 MOL      0.073839
    143 H62         6.8380    6.4040   -1.8000 hc        1 MOL      0.073839
    144 H63         7.2550    5.0810   -4.1530 hc        1 MOL      0.017896
    145 H64         8.2800    4.6220   -2.7680 hc        1 MOL      0.017896
    146 H65         5.5940    3.3900   -3.5640 h1        1 MOL      0.097174
    147 H66         7.1950    2.5440   -3.4300 h1        1 MOL      0.097174
    148 N13         4.1300    3.9160    0.2400 n         1 MOL     -0.126522
    149 C50         3.0580    4.0920    1.1270 c3        1 MOL     -0.304120
    150 C51         3.3860    4.3080    2.6050 c         1 MOL      0.512385
    151 O21         2.4910    4.7660    3.3700 o         1 MOL     -0.520214
    152 C52         2.0280    3.0150    0.9840 c3        1 MOL     -0.101306
    153 C53         2.3720    1.5700    1.3710 c3        1 MOL     -0.051648
    154 C54         1.3240    0.5170    0.9280 c         1 MOL      0.562721
    155 O22         1.6750   -0.3520    0.0380 o         1 MOL     -0.635637
    156 O23         0.1140    0.7140    1.0790 o         1 MOL     -0.635637
    157 H67         4.1260    3.0820   -0.3180 hn        1 MOL      0.174725
    158 H68         2.6060    5.0080    0.7690 h1        1 MOL      0.152948
    159 H69         1.7310    2.9720   -0.0630 hc        1 MOL      0.093329
    160 H70         1.1300    3.3090    1.5390 hc        1 MOL      0.093329
    161 H71         2.4710    1.5020    2.4540 hc        1 MOL      0.023788
    162 H72         3.3230    1.3110    0.9070 hc        1 MOL      0.023788
    163 N14         4.5890    3.8580    2.9510 n         1 MOL     -0.115194
    164 C55         5.0240    4.0130    4.3210 c3        1 MOL     -0.293683
    165 H73         4.5740    3.2330    4.9350 h1        1 MOL      0.108979
    166 H74         6.1100    3.9320    4.3690 h1        1 MOL      0.108979
    167 H75         4.7160    4.9900    4.6920 h1        1 MOL      0.108979
    168 H76         5.1760    3.4030    2.2730 hn        1 MOL      0.192792
    169 Ca1        -0.5900   -1.0870   -0.9380 Ca        1 MOL      1.762999
    170 O24        -2.1520   -1.2400    1.2040 oh        1 MOL     -0.831534
    171 H77        -2.0880   -0.7840    2.0470 ho        1 MOL      0.404915
    172 H78        -3.0900   -1.4680    1.1290 ho        1 MOL      0.404915
    173 O25         0.1790    0.6310   -2.7950 oh        1 MOL     -0.831534
    174 H79        -0.0200    0.2500   -3.6540 ho        1 MOL      0.404915
    175 H80         0.3120    1.5650   -2.9720 ho        1 MOL      0.404915
@<TRIPOS>BOND
     1    1    2 1   
     2    1    4 1   
     3    1    5 1   
     4    1    6 1   
     5    2    3 2   
     6    2    7 1   
     7    7    8 1   
     8    7   15 1   
     9    8    9 1   
    10    8   11 1   
    11    8   16 1   
    12    9   10 2   
    13    9   19 1   
    14   11   12 1   
    15   11   17 1   
    16   11   18 1   
    17   12   13 1   
    18   12   14 1   
    19   19   20 1   
    20   19   24 1   
    21   20   21 1   
    22   20   23 1   
    23   20   25 1   
    24   21   22 2   
    25   21   29 1   
    26   23   26 1   
    27   23   27 1   
    28   23   28 1   
    29   29   30 1   
    30   29   37 1   
    31   30   31 1   
    32   30   33 1   
    33   30   38 1   
    34   31   32 2   
    35   31   41 1   
    36   33   34 1   
    37   33   39 1   
    38   33   40 1   
    39   34   35 1   
    40   34   36 1   
    41   41   42 1   
    42   41   45 1   
    43   42   43 1   
    44   42   46 1   
    45   42   47 1   
    46   43   44 2   
    47   43   48 1   
    48   48   49 1   
    49   48   56 1   
    50   49   50 1   
    51   49   52 1   
    52   49   57 1   
    53   50   51 2   
    54   50   62 1   
    55   52   53 1   
    56   52   58 1   
    57   52   59 1   
    58   53   54 1   
    59   53   55 2   
    60   54   60 1   
    61   54   61 1   
    62   62   63 1   
    63   62   66 1   
    64   63   64 1   
    65   63   67 1   
    66   63   68 1   
    67   64   65 2   
    68   64   69 1   
    69   69   70 1   
    70   69   76 1   
    71   70   71 1   
    72   70   73 1   
    73   70   77 1   
    74   71   72 2   
    75   71   83 1   
    76   73   74 1   
    77   73   75 1   
    78   73   78 1   
    79   74   80 1   
    80   74   81 1   
    81   74   82 1   
    82   75   79 1   
    83   83   84 1   
    84   83   91 1   
    85   84   85 1   
    86   84   87 1   
    87   84   92 1   
    88   85   86 2   
    89   85  102 1   
    90   87   88 1   
    91   87   89 1   
    92   87   93 1   
    93   88   90 1   
    94   88   94 1   
    95   88   95 1   
    96   89   96 1   
    97   89   97 1   
    98   89   98 1   
    99   90   99 1   
   100   90  100 1   
   101   90  101 1   
   102  102  103 1   
   103  102  110 1   
   104  103  104 1   
   105  103  106 1   
   106  103  111 1   
   107  104  105 2   
   108  104  114 1   
   109  106  107 1   
   110  106  112 1   
   111  106  113 1   
   112  107  108 1   
   113  107  109 1   
   114  114  115 1   
   115  114  125 1   
   116  115  116 1   
   117  115  118 1   
   118  115  126 1   
   119  116  117 2   
   120  116  134 1   
   121  118  119 1   
   122  118  127 1   
   123  118  128 1   
   124  119  120 ar  
   125  119  121 ar  
   126  120  122 ar  
   127  120  129 1   
   128  121  123 ar  
   129  121  130 1   
   130  122  124 ar  
   131  122  131 1   
   132  123  124 ar  
   133  123  132 1   
   134  124  133 1   
   135  134  135 1   
   136  134  140 1   
   137  135  136 1   
   138  135  138 1   
   139  135  141 1   
   140  136  137 2   
   141  136  148 1   
   142  138  139 1   
   143  138  142 1   
   144  138  143 1   
   145  139  140 1   
   146  139  144 1   
   147  139  145 1   
   148  140  146 1   
   149  140  147 1   
   150  148  149 1   
   151  148  157 1   
   152  149  150 1   
   153  149  152 1   
   154  149  158 1   
   155  150  151 2   
   156  150  163 1   
   157  152  153 1   
   158  152  159 1   
   159  152  160 1   
   160  153  154 1   
   161  153  161 1   
   162  153  162 1   
   163  154  155 1   
   164  154  156 1   
   165  163  164 1   
   166  163  168 1   
   167  164  165 1   
   168  164  166 1   
   169  164  167 1   
   170  170  171 1   
   171  170  172 1   
   172  173  174 1   
   173  173  175 1   
@<TRIPOS>SUBSTRUCTURE
     1 MOL         1 TEMP              0 ****  ****    0 ROOT
