@<TRIPOS>MOLECULE
MOL
  181   177     1     0     0
SMALL
resp


@<TRIPOS>ATOM
      1 C1         11.5580    5.6950    2.1110 c3        1 MOL     -0.262515
      2 C2         10.4670    4.6210    2.2470 c         1 MOL      0.685243
      3 O1          9.4730    4.7370    2.8980 o         1 MOL     -0.564945
      4 H1         11.0940    6.6650    1.9340 hc        1 MOL      0.063678
      5 H2         12.1450    5.7350    3.0290 hc        1 MOL      0.063678
      6 H3         12.2100    5.4470    1.2730 hc        1 MOL      0.063678
      7 N1         10.5850    3.4280    1.5720 n         1 MOL     -0.480014
      8 C3         11.6630    2.9240    0.7070 c3        1 MOL     -0.028283
      9 C4         12.0410    1.4960    0.9910 c         1 MOL      0.538468
     10 O2         11.9090    1.0070    2.1210 o         1 MOL     -0.489583
     11 C5         11.2200    3.1970   -0.7390 c3        1 MOL     -0.140279
     12 C6          9.9930    2.5040   -1.1580 c         1 MOL      0.793925
     13 O3         10.0810    1.4250   -1.7550 o         1 MOL     -0.790513
     14 O4          8.8410    2.9760   -0.9910 o         1 MOL     -0.790513
     15 H4          9.8630    2.7580    1.7740 hn        1 MOL      0.328411
     16 H5         12.5810    3.4990    0.8610 h1        1 MOL      0.079172
     17 H6         12.0050    2.9340   -1.4370 hc        1 MOL      0.010391
     18 H7         10.9740    4.2610   -0.7500 hc        1 MOL      0.010391
     19 N2         12.6440    0.8330   -0.0090 n         1 MOL     -0.490949
     20 C7         13.1930   -0.4900   -0.0220 c3        1 MOL      0.123392
     21 C8         12.1840   -1.5360    0.3870 c         1 MOL      0.564176
     22 O5         12.5840   -2.5600    0.9740 o         1 MOL     -0.565221
     23 C9         14.5480   -0.5420    0.7420 c3        1 MOL     -0.247984
     24 H8         12.7690    1.3300   -0.8740 hn        1 MOL      0.323727
     25 H9         13.5080   -0.7450   -1.0320 h1        1 MOL      0.050833
     26 H10        14.9900   -1.5440    0.7090 hc        1 MOL      0.068631
     27 H11        15.3050    0.1890    0.4270 hc        1 MOL      0.068631
     28 H12        14.3400   -0.3710    1.8030 hc        1 MOL      0.068631
     29 N3         10.8730   -1.4040    0.0610 n         1 MOL     -0.567843
     30 C10         9.8200   -2.3320    0.5280 c3        1 MOL      0.346173
     31 C11         8.8890   -2.7240   -0.7010 c         1 MOL      0.208325
     32 O6          9.1710   -2.3450   -1.8200 o         1 MOL     -0.431560
     33 C12         9.0530   -1.6270    1.6840 c3        1 MOL     -0.355235
     34 C13         8.4240   -0.2240    1.3750 c         1 MOL      0.716094
     35 O7          7.9810    0.3660    2.3310 o         1 MOL     -0.659562
     36 O8          8.3560    0.1820    0.2330 o         1 MOL     -0.659562
     37 H13        10.5780   -0.5620   -0.4060 hn        1 MOL      0.298937
     38 H14        10.2030   -3.2710    0.9210 h1        1 MOL      0.002676
     39 H15         9.7820   -1.4360    2.4680 hc        1 MOL      0.079774
     40 H16         8.3760   -2.4160    2.0000 hc        1 MOL      0.079774
     41 N4          7.8900   -3.4710   -0.4060 n         1 MOL     -0.145196
     42 C14         6.7700   -3.7720   -1.3090 c3        1 MOL     -0.543315
     43 C15         5.8930   -2.5860   -1.7580 c         1 MOL      0.813623
     44 O9          6.3980   -1.4600   -1.9070 o         1 MOL     -0.661528
     45 H17         7.8240   -3.8350    0.5280 hn        1 MOL      0.257209
     46 H18         6.1670   -4.4600   -0.7120 h1        1 MOL      0.187698
     47 H19         7.2300   -4.2540   -2.1710 h1        1 MOL      0.187698
     48 N5          4.6120   -2.8840   -1.9030 n         1 MOL     -0.600943
     49 C16         3.5260   -1.9320   -2.2520 c3        1 MOL      0.096065
     50 C17         2.2080   -2.3710   -1.4710 c         1 MOL      0.528635
     51 O10         1.5520   -3.3250   -1.8360 o         1 MOL     -0.551987
     52 C18         3.1600   -2.0650   -3.8010 c3        1 MOL     -0.261457
     53 C19         1.9890   -1.1360   -4.2440 c         1 MOL      0.587741
     54 N6          0.8140   -1.6040   -4.0690 n         1 MOL     -0.756825
     55 O11         2.1490    0.0310   -4.5410 o         1 MOL     -0.562189
     56 H20         4.4070   -3.8720   -1.9280 hn        1 MOL      0.341747
     57 H21         3.8000   -0.9000   -2.0050 h1        1 MOL      0.035799
     58 H22         2.8260   -3.0650   -4.0940 hc        1 MOL      0.091022
     59 H23         3.9990   -1.9090   -4.4670 hc        1 MOL      0.091022
     60 H24         0.8570   -2.5170   -3.6500 hn        1 MOL      0.410563
     61 H25         0.0260   -0.9730   -4.1530 hn        1 MOL      0.410563
     62 N7          1.8750   -1.5090   -0.5830 n         1 MOL     -0.367977
     63 C20         0.9460   -1.9380    0.4930 c3        1 MOL      0.059028
     64 C21         0.8640   -1.0150    1.7030 c         1 MOL      0.437240
     65 O12         1.2730    0.1280    1.5810 o         1 MOL     -0.500452
     66 H26         2.3880   -0.6560   -0.4150 hn        1 MOL      0.275355
     67 H27         1.4480   -2.8270    0.8630 h1        1 MOL      0.089768
     68 H28        -0.0450   -2.2290    0.1530 h1        1 MOL      0.089768
     69 N8          0.2190   -1.3980    2.8480 n         1 MOL     -0.415183
     70 C22        -0.4830   -2.6740    3.1860 c3        1 MOL     -0.096537
     71 C23        -2.0040   -2.6570    2.9760 c         1 MOL      0.514077
     72 O13        -2.5990   -3.7000    2.9860 o         1 MOL     -0.543627
     73 C24        -0.1770   -3.0330    4.7270 c3        1 MOL      0.328572
     74 C25         1.2560   -3.3850    4.9730 c3        1 MOL     -0.251647
     75 O14        -0.4620   -2.0010    5.6250 oh        1 MOL     -0.633204
     76 H29         0.1020   -0.6080    3.4670 hn        1 MOL      0.313361
     77 H30        -0.0960   -3.5410    2.6510 h1        1 MOL      0.098704
     78 H31        -0.9150   -3.8090    4.9580 h1        1 MOL      0.006813
     79 H32        -0.0990   -2.3460    6.4510 ho        1 MOL      0.400866
     80 H33         1.4360   -4.4490    4.8490 hc        1 MOL      0.053809
     81 H34         1.8880   -2.8210    4.2780 hc        1 MOL      0.053809
     82 H35         1.5450   -3.1920    6.0090 hc        1 MOL      0.053809
     83 N9         -2.5410   -1.4910    2.6810 n         1 MOL     -0.151601
     84 C26        -3.9750   -1.2470    2.3750 c3        1 MOL     -0.088519
     85 C27        -4.1220   -0.7650    0.8550 c         1 MOL      0.327006
     86 O15        -3.2070   -0.3280    0.1830 o         1 MOL     -0.524727
     87 C28        -4.6900   -0.3030    3.3240 c3        1 MOL      0.209485
     88 C29        -4.2280    1.1830    3.2270 c3        1 MOL      0.060021
     89 C30        -4.5180   -0.8590    4.7480 c3        1 MOL     -0.167745
     90 C31        -4.9840    2.2200    4.0930 c3        1 MOL     -0.348214
     91 H36        -1.8910   -0.7210    2.6580 hn        1 MOL      0.181954
     92 H37        -4.4960   -2.2040    2.4650 h1        1 MOL      0.109574
     93 H38        -5.7700   -0.3490    3.1790 hc        1 MOL      0.002391
     94 H39        -4.1710    1.4700    2.1800 hc        1 MOL     -0.005427
     95 H40        -3.2140    1.1080    3.6400 hc        1 MOL     -0.005427
     96 H41        -4.7680   -1.9070    4.9090 hc        1 MOL      0.020342
     97 H42        -3.4640   -0.7330    4.9970 hc        1 MOL      0.020342
     98 H43        -5.0880   -0.3210    5.4980 hc        1 MOL      0.020342
     99 H44        -4.8620    3.2030    3.6490 hc        1 MOL      0.083782
    100 H45        -6.0090    1.8530    4.2050 hc        1 MOL      0.083782
    101 H46        -4.6700    2.2140    5.1330 hc        1 MOL      0.083782
    102 N10        -5.2090   -1.1230    0.1630 n         1 MOL     -0.120189
    103 C32        -6.3990   -1.8510    0.6050 c3        1 MOL     -0.127560
    104 C33        -7.5530   -1.5380   -0.3820 c         1 MOL      0.376588
    105 O16        -7.3050   -1.1390   -1.4830 o         1 MOL     -0.394191
    106 C34        -6.1070   -3.3260    0.6840 c3        1 MOL     -0.003025
    107 C35        -5.4000   -3.7830   -0.5840 c         1 MOL      0.558972
    108 O17        -4.2330   -4.2550   -0.4870 o         1 MOL     -0.676561
    109 O18        -6.0660   -3.8350   -1.6740 o         1 MOL     -0.676561
    110 H47        -5.2700   -0.7610   -0.7750 hn        1 MOL      0.297581
    111 H48        -6.7050   -1.5860    1.6200 h1        1 MOL      0.036753
    112 H49        -7.0670   -3.8350    0.8170 hc        1 MOL     -0.003381
    113 H50        -5.6420   -3.6720    1.6030 hc        1 MOL     -0.003381
    114 N11        -8.8120   -1.8020    0.0050 n         1 MOL     -0.448563
    115 C36        -9.9350   -1.1070   -0.6050 c3        1 MOL      0.298498
    116 C37       -10.9090   -0.6340    0.5570 c         1 MOL      0.139251
    117 O19       -11.3230   -1.3410    1.4660 o         1 MOL     -0.480449
    118 C38       -10.6410   -1.9860   -1.6040 c3        1 MOL     -0.329945
    119 C39       -11.7890   -1.3350   -2.3060 ca        1 MOL      0.033456
    120 C40       -13.0510   -1.5050   -1.7210 ca        1 MOL     -0.077311
    121 C41       -11.6710   -0.4940   -3.4170 ca        1 MOL     -0.077311
    122 C42       -14.2330   -0.8400   -2.1820 ca        1 MOL     -0.254392
    123 C43       -12.7640    0.2480   -3.7840 ca        1 MOL     -0.254392
    124 C44       -14.0130    0.1370   -3.1570 ca        1 MOL      0.050703
    125 H51        -8.9270   -2.0450    0.9770 hn        1 MOL      0.298496
    126 H52        -9.5880   -0.2260   -1.1420 h1        1 MOL      0.009581
    127 H53       -11.0000   -2.8810   -1.0990 hc        1 MOL      0.131568
    128 H54        -9.9460   -2.3470   -2.3700 hc        1 MOL      0.131568
    129 H55       -13.0720   -2.1250   -0.8360 ha        1 MOL      0.123758
    130 H56       -10.6990   -0.3730   -3.8680 ha        1 MOL      0.123758
    131 H57       -15.1640   -0.8690   -1.6470 ha        1 MOL      0.133081
    132 H58       -12.6260    0.9520   -4.5950 ha        1 MOL      0.133081
    133 H59       -14.8830    0.6830   -3.4790 ha        1 MOL      0.052055
    134 N12       -11.3630    0.6460    0.4950 n         1 MOL      0.118025
    135 C45       -11.2480    1.6540   -0.5470 c3        1 MOL     -0.088775
    136 C46        -9.9580    2.4510   -0.6090 c         1 MOL      0.287735
    137 O20        -9.8380    3.2910   -1.5330 o         1 MOL     -0.533977
    138 C47       -12.4140    2.6750   -0.2810 c3        1 MOL     -0.015682
    139 C48       -13.0230    2.3520    1.0450 c3        1 MOL     -0.174495
    140 C49       -11.9320    1.3720    1.6130 c3        1 MOL     -0.053168
    141 H60       -11.5020    1.0950   -1.4470 h1        1 MOL      0.163909
    142 H61       -12.1340    3.7220   -0.1580 hc        1 MOL      0.033192
    143 H62       -13.1290    2.5240   -1.0940 hc        1 MOL      0.033192
    144 H63       -13.0630    3.2480    1.6770 hc        1 MOL      0.059952
    145 H64       -13.9490    1.7890    0.9850 hc        1 MOL      0.059952
    146 H65       -11.1720    1.7280    2.3020 h1        1 MOL      0.048706
    147 H66       -12.5610    0.6970    2.2040 h1        1 MOL      0.048706
    148 N13        -9.0820    2.3950    0.3610 n         1 MOL     -0.164442
    149 C50        -7.7530    3.0400    0.3890 c3        1 MOL      0.084187
    150 C51        -7.5180    3.5470    1.8080 c         1 MOL      0.290679
    151 O21        -7.7600    2.9240    2.8760 o         1 MOL     -0.561766
    152 C52        -6.6420    2.0650   -0.0470 c3        1 MOL      0.249868
    153 C53        -6.5080    1.8130   -1.5340 c3        1 MOL     -0.144987
    154 C54        -5.7990    2.9560   -2.2250 c         1 MOL      0.678904
    155 O22        -6.1480    4.1200   -2.0600 o         1 MOL     -0.714103
    156 O23        -4.9200    2.6000   -3.0770 o         1 MOL     -0.714103
    157 H67        -9.3050    1.9660    1.2540 hn        1 MOL      0.188595
    158 H68        -7.7060    3.8900   -0.2810 h1        1 MOL      0.102334
    159 H69        -6.7580    1.1190    0.4930 hc        1 MOL     -0.074941
    160 H70        -5.7760    2.6440    0.2940 hc        1 MOL     -0.074941
    161 H71        -7.4600    1.6480   -2.0440 hc        1 MOL      0.017653
    162 H72        -5.9790    0.8580   -1.5920 hc        1 MOL      0.017653
    163 N14        -6.7200    4.6350    1.8860 n         1 MOL     -0.207009
    164 C55        -6.2220    5.6410    0.9810 c3        1 MOL     -0.015376
    165 H73        -6.9910    6.3970    0.8190 h1        1 MOL      0.036741
    166 H74        -5.3370    6.1110    1.4110 h1        1 MOL      0.036741
    167 H75        -5.9610    5.1780    0.0290 h1        1 MOL      0.036741
    168 H76        -6.5620    4.8370    2.8610 hn        1 MOL      0.214835
    169 Ca1         7.3800    1.0740   -1.9520 Ca        1 MOL      1.800555
    170 O24         7.4160    3.5190   -3.5960 oh        1 MOL     -0.840275
    171 H77         8.1420    4.1180   -3.7620 ho        1 MOL      0.417848
    172 H78         6.6820    3.8940   -4.0840 ho        1 MOL      0.417848
    173 O25         5.2570    1.2690   -0.4610 oh        1 MOL     -0.840275
    174 H79         4.3300    1.3290   -0.7060 ho        1 MOL      0.417848
    175 H80         5.2900    0.5510    0.1600 ho        1 MOL      0.417848
    176 O26         5.3490    1.8010   -3.6330 oh        1 MOL     -0.840275
    177 H81         4.9540    1.7860   -4.5080 ho        1 MOL      0.417848
    178 H82         4.7570    2.3460   -3.1110 ho        1 MOL      0.417848
    179 O27         8.2920   -0.3300   -4.0150 oh        1 MOL     -0.840275
    180 H83         9.1310   -0.7360   -4.2300 ho        1 MOL      0.417848
    181 H84         7.6520   -0.7880   -4.5530 ho        1 MOL      0.417848
@<TRIPOS>BOND
     1    1    2 1   
     2    1    4 1   
     3    1    5 1   
     4    1    6 1   
     5    2    3 2   
     6    2    7 1   
     7    7    8 1   
     8    7   15 1   
     9    8    9 1   
    10    8   11 1   
    11    8   16 1   
    12    9   10 2   
    13    9   19 1   
    14   11   12 1   
    15   11   17 1   
    16   11   18 1   
    17   12   13 1   
    18   12   14 1   
    19   19   20 1   
    20   19   24 1   
    21   20   21 1   
    22   20   23 1   
    23   20   25 1   
    24   21   22 2   
    25   21   29 1   
    26   23   26 1   
    27   23   27 1   
    28   23   28 1   
    29   29   30 1   
    30   29   37 1   
    31   30   31 1   
    32   30   33 1   
    33   30   38 1   
    34   31   32 2   
    35   31   41 1   
    36   33   34 1   
    37   33   39 1   
    38   33   40 1   
    39   34   35 1   
    40   34   36 1   
    41   41   42 1   
    42   41   45 1   
    43   42   43 1   
    44   42   46 1   
    45   42   47 1   
    46   43   44 2   
    47   43   48 1   
    48   48   49 1   
    49   48   56 1   
    50   49   50 1   
    51   49   52 1   
    52   49   57 1   
    53   50   51 2   
    54   50   62 1   
    55   52   53 1   
    56   52   58 1   
    57   52   59 1   
    58   53   54 1   
    59   53   55 2   
    60   54   60 1   
    61   54   61 1   
    62   62   63 1   
    63   62   66 1   
    64   63   64 1   
    65   63   67 1   
    66   63   68 1   
    67   64   65 2   
    68   64   69 1   
    69   69   70 1   
    70   69   76 1   
    71   70   71 1   
    72   70   73 1   
    73   70   77 1   
    74   71   72 2   
    75   71   83 1   
    76   73   74 1   
    77   73   75 1   
    78   73   78 1   
    79   74   80 1   
    80   74   81 1   
    81   74   82 1   
    82   75   79 1   
    83   83   84 1   
    84   83   91 1   
    85   84   85 1   
    86   84   87 1   
    87   84   92 1   
    88   85   86 2   
    89   85  102 1   
    90   87   88 1   
    91   87   89 1   
    92   87   93 1   
    93   88   90 1   
    94   88   94 1   
    95   88   95 1   
    96   89   96 1   
    97   89   97 1   
    98   89   98 1   
    99   90   99 1   
   100   90  100 1   
   101   90  101 1   
   102  102  103 1   
   103  102  110 1   
   104  103  104 1   
   105  103  106 1   
   106  103  111 1   
   107  104  105 2   
   108  104  114 1   
   109  106  107 1   
   110  106  112 1   
   111  106  113 1   
   112  107  108 1   
   113  107  109 1   
   114  114  115 1   
   115  114  125 1   
   116  115  116 1   
   117  115  118 1   
   118  115  126 1   
   119  116  117 2   
   120  116  134 1   
   121  118  119 1   
   122  118  127 1   
   123  118  128 1   
   124  119  120 ar  
   125  119  121 ar  
   126  120  122 ar  
   127  120  129 1   
   128  121  123 ar  
   129  121  130 1   
   130  122  124 ar  
   131  122  131 1   
   132  123  124 ar  
   133  123  132 1   
   134  124  133 1   
   135  134  135 1   
   136  134  140 1   
   137  135  136 1   
   138  135  138 1   
   139  135  141 1   
   140  136  137 2   
   141  136  148 1   
   142  138  139 1   
   143  138  142 1   
   144  138  143 1   
   145  139  140 1   
   146  139  144 1   
   147  139  145 1   
   148  140  146 1   
   149  140  147 1   
   150  148  149 1   
   151  148  157 1   
   152  149  150 1   
   153  149  152 1   
   154  149  158 1   
   155  150  151 2   
   156  150  163 1   
   157  152  153 1   
   158  152  159 1   
   159  152  160 1   
   160  153  154 1   
   161  153  161 1   
   162  153  162 1   
   163  154  155 1   
   164  154  156 1   
   165  163  164 1   
   166  163  168 1   
   167  164  165 1   
   168  164  166 1   
   169  164  167 1   
   170  170  171 1   
   171  170  172 1   
   172  173  174 1   
   173  173  175 1   
   174  176  177 1   
   175  176  178 1   
   176  179  180 1   
   177  179  181 1   
@<TRIPOS>SUBSTRUCTURE
     1 MOL         1 TEMP              0 ****  ****    0 ROOT
