@<TRIPOS>MOLECULE
MOL
  195   189     1     0     0
SMALL
resp


@<TRIPOS>ATOM
      1 C1         -4.1020   -4.5430    3.1960 c3        1 MOL     -0.528250
      2 C2         -3.2920   -4.2600    1.9100 c         1 MOL      0.508611
      3 O1         -2.9910   -3.1230    1.6130 o         1 MOL     -0.413379
      4 H1         -4.9810   -3.9000    3.2190 hc        1 MOL      0.137158
      5 H2         -4.4150   -5.5870    3.2060 hc        1 MOL      0.137158
      6 H3         -3.4810   -4.3410    4.0690 hc        1 MOL      0.137158
      7 N1         -2.9320   -5.3440    1.1410 n         1 MOL     -0.648585
      8 C3         -2.1870   -5.4240   -0.0910 c3        1 MOL     -0.503972
      9 C4         -0.7290   -4.9190   -0.0350 c         1 MOL      0.647523
     10 O2         -0.0940   -4.8220   -1.0860 o         1 MOL     -0.545473
     11 C5         -3.0310   -4.7300   -1.2170 c3        1 MOL      0.235088
     12 C6         -4.4190   -5.4290   -1.4070 c         1 MOL      0.423560
     13 O3         -4.5320   -6.6020   -1.9260 o         1 MOL     -0.646248
     14 O4         -5.4730   -4.7590   -1.2550 o         1 MOL     -0.646248
     15 H4         -3.3290   -6.2120    1.4630 hn        1 MOL      0.435029
     16 H5         -2.1380   -6.4980   -0.2550 h1        1 MOL      0.248319
     17 H6         -2.5520   -4.6150   -2.1800 hc        1 MOL      0.055379
     18 H7         -3.2570   -3.7280   -0.8730 hc        1 MOL      0.055379
     19 N2         -0.2090   -4.6260    1.1660 n         1 MOL     -0.331210
     20 C7          1.2070   -4.2060    1.5060 c3        1 MOL     -0.346331
     21 C8          2.1600   -5.3310    1.0490 c         1 MOL      0.658623
     22 O5          1.7290   -6.4360    0.9000 o         1 MOL     -0.569285
     23 C9          1.4070   -3.9730    3.0500 c3        1 MOL      0.307780
     24 C10         0.5450   -4.9600    3.9360 c3        1 MOL      0.163821
     25 C11         1.1500   -2.5240    3.3490 c3        1 MOL     -0.167467
     26 C12         0.9000   -4.9320    5.3580 c3        1 MOL     -0.298791
     27 H8         -0.8430   -4.7540    1.9410 hn        1 MOL      0.316857
     28 H9          1.4690   -3.2940    0.9750 h1        1 MOL      0.228964
     29 H10         2.4500   -4.1110    3.3270 hc        1 MOL      0.002600
     30 H11         0.5830   -5.9910    3.5670 hc        1 MOL     -0.036517
     31 H12        -0.4850   -4.6160    3.8300 hc        1 MOL     -0.036517
     32 H13         0.1370   -2.2290    3.0610 hc        1 MOL      0.019107
     33 H14         1.4540   -2.1600    4.3340 hc        1 MOL      0.019107
     34 H15         1.7310   -1.8880    2.6750 hc        1 MOL      0.019107
     35 H16         0.9970   -3.9190    5.7600 hc        1 MOL      0.063563
     36 H17         0.1870   -5.5400    5.9160 hc        1 MOL      0.063563
     37 H18         1.8990   -5.3440    5.4850 hc        1 MOL      0.063563
     38 N3          3.4650   -5.1350    0.8960 n         1 MOL     -0.608264
     39 C13         4.0940   -3.8420    0.8500 c3        1 MOL      0.065308
     40 C14         4.0580   -3.2640   -0.5630 c         1 MOL      0.305932
     41 O6          4.0750   -2.0400   -0.6940 o         1 MOL     -0.430272
     42 C15         5.5460   -4.0300    1.3450 c3        1 MOL     -0.264957
     43 C16         5.5210   -4.8290    2.6810 c         1 MOL      0.753036
     44 O7          4.7820   -4.4540    3.6340 o         1 MOL     -0.692887
     45 O8          6.3790   -5.6800    2.9710 o         1 MOL     -0.692887
     46 H19         4.0000   -5.9390    0.6100 hn        1 MOL      0.338331
     47 H20         3.5710   -3.1390    1.4960 h1        1 MOL      0.069833
     48 H21         6.0130   -3.0480    1.4660 hc        1 MOL      0.051538
     49 H22         6.0730   -4.6260    0.6050 hc        1 MOL      0.051538
     50 N4          4.0440   -4.1470   -1.5480 n         1 MOL     -0.242278
     51 C17         3.8570   -3.6860   -2.9230 c3        1 MOL     -0.289546
     52 C18         5.1180   -2.9470   -3.5150 c         1 MOL      0.585165
     53 O9          5.7110   -3.4810   -4.4150 o         1 MOL     -0.577391
     54 H23         4.0950   -5.1500   -1.3860 hn        1 MOL      0.308668
     55 H24         3.0390   -2.9720   -2.8410 h1        1 MOL      0.143627
     56 H25         3.6570   -4.4970   -3.6200 h1        1 MOL      0.143627
     57 N5          5.5990   -1.7830   -3.0120 n         1 MOL     -0.375629
     58 C19         6.8680   -1.1290   -3.3560 c3        1 MOL      0.105576
     59 C20         7.6810   -0.8260   -2.0910 c         1 MOL      0.339736
     60 O10         8.8580   -0.5570   -2.2240 o         1 MOL     -0.530821
     61 C21         6.5360    0.0950   -4.2220 c3        1 MOL     -0.133273
     62 C22         5.3960    0.8610   -3.5200 c         1 MOL      0.711238
     63 O11         5.4490    1.1790   -2.2970 o         1 MOL     -0.690811
     64 O12         4.4000    1.1350   -4.2400 o         1 MOL     -0.690811
     65 H26         5.0910   -1.4140   -2.2240 hn        1 MOL      0.212355
     66 H27         7.4490   -1.8340   -3.9560 h1        1 MOL      0.074868
     67 H28         6.2350   -0.2240   -5.2150 hc        1 MOL      0.012880
     68 H29         7.4270    0.7210   -4.2630 hc        1 MOL      0.012880
     69 N6          7.1240   -0.9350   -0.8900 n         1 MOL     -0.163662
     70 C23         7.6860   -0.4960    0.4510 c3        1 MOL     -0.413489
     71 C24         7.9740    0.9870    0.5660 c         1 MOL      0.576187
     72 O13         8.8140    1.2770    1.3630 o         1 MOL     -0.566897
     73 H30         6.1980   -1.3380   -0.7810 hn        1 MOL      0.190409
     74 H31         8.6890   -0.9230    0.5450 h1        1 MOL      0.175196
     75 H32         7.0070   -0.7760    1.2540 h1        1 MOL      0.175196
     76 N7          7.3380    1.7880   -0.2920 n         1 MOL     -0.023669
     77 C25         7.0930    3.1970   -0.1010 c3        1 MOL     -0.088829
     78 C26         6.1470    3.6260    1.0310 c         1 MOL      0.460837
     79 O14         6.0330    4.8220    1.3380 o         1 MOL     -0.532086
     80 C27         8.3690    4.0630   -0.2670 c3        1 MOL      0.092464
     81 C28         9.0890    3.6650   -1.6180 c3        1 MOL     -0.131854
     82 C29        10.3440    4.5070   -1.8340 c         1 MOL      0.701361
     83 N8         11.1260    4.2140   -2.8510 n         1 MOL     -0.841790
     84 O15        10.7110    5.4630   -1.1370 o         1 MOL     -0.592768
     85 H33         6.7800    1.3990   -1.0460 hn        1 MOL      0.091493
     86 H34         6.5280    3.4780   -0.9900 h1        1 MOL      0.115100
     87 H35         8.9910    3.8120    0.5960 hc        1 MOL     -0.019291
     88 H36         8.1170    5.1110   -0.2730 hc        1 MOL     -0.019291
     89 H37         8.3510    3.7080   -2.4140 hc        1 MOL      0.037431
     90 H38         9.5090    2.6550   -1.5650 hc        1 MOL      0.037431
     91 H39        11.0470    3.3950   -3.4280 hn        1 MOL      0.353692
     92 H40        11.9910    4.7320   -2.9490 hn        1 MOL      0.353692
     93 N9          5.3660    2.7610    1.5960 n         1 MOL     -0.327015
     94 C30         4.3910    2.9740    2.7300 c3        1 MOL      0.042505
     95 C31         2.9340    2.9910    2.3800 c         1 MOL      0.551685
     96 O16         2.1800    3.8830    2.8840 o         1 MOL     -0.577788
     97 C32         4.6240    2.0060    3.9230 c3        1 MOL      0.318298
     98 C33         4.5200    0.6270    3.3820 c3        1 MOL     -0.325977
     99 C34         6.0120    2.2190    4.5140 c3        1 MOL     -0.325977
    100 H41         5.4700    1.8240    1.2320 hn        1 MOL      0.190752
    101 H42         4.5880    3.9530    3.1680 h1        1 MOL      0.049058
    102 H43         3.8550    2.2270    4.6660 hc        1 MOL     -0.041375
    103 H44         5.3850    0.4110    2.7520 hc        1 MOL      0.072960
    104 H45         4.4890   -0.0490    4.2300 hc        1 MOL      0.072960
    105 H46         3.5880    0.3120    2.8950 hc        1 MOL      0.072960
    106 H47         6.8090    2.1750    3.7700 hc        1 MOL      0.072960
    107 H48         5.9000    3.2090    4.9560 hc        1 MOL      0.072960
    108 H49         6.1630    1.4830    5.3110 hc        1 MOL      0.072960
    109 N10         2.4990    2.1420    1.4740 n         1 MOL     -0.383556
    110 C35         1.0990    1.8490    1.0850 c3        1 MOL     -0.111284
    111 C36         0.5150    2.8720    0.0800 c         1 MOL      0.701600
    112 O17         1.3250    3.3980   -0.7240 o         1 MOL     -0.547999
    113 C37         0.8110    0.3990    0.6440 c3        1 MOL      0.151821
    114 C38        -0.5330   -0.1720    1.1280 c         1 MOL      0.516488
    115 N11        -0.6810   -1.3710    0.7270 n         1 MOL     -0.387063
    116 O18        -1.3560    0.4630    1.7650 o         1 MOL     -0.576626
    117 H50         3.1990    1.6330    0.9530 hn        1 MOL      0.240984
    118 H51         0.5560    1.9210    2.0320 h1        1 MOL      0.048544
    119 H52         1.5140   -0.3700    0.9550 hc        1 MOL     -0.024469
    120 H53         0.7690    0.4030   -0.4430 hc        1 MOL     -0.024469
    121 H54        -0.0040   -1.7330    0.0750 hn        1 MOL      0.221363
    122 H55        -1.5830   -1.8270    0.8100 hn        1 MOL      0.221363
    123 N12        -0.8060    3.1850    0.1710 n         1 MOL     -0.469120
    124 C39        -1.5280    4.0860   -0.7030 c3        1 MOL      0.008928
    125 C40        -2.8960    4.1730   -0.0870 c         1 MOL      0.506523
    126 O19        -3.4220    3.2820    0.6310 o         1 MOL     -0.549076
    127 C41        -1.5970    3.4260   -2.1180 c3        1 MOL     -0.230071
    128 C42        -2.1060    2.0250   -2.2470 ca        1 MOL      0.096476
    129 C43        -3.4700    1.7030   -2.3100 ca        1 MOL     -0.153567
    130 C44        -1.2550    0.9330   -2.3920 ca        1 MOL     -0.153567
    131 C45        -3.9050    0.4290   -2.5350 ca        1 MOL     -0.256876
    132 C46        -1.6450   -0.4260   -2.5310 ca        1 MOL     -0.256876
    133 C47        -3.0460   -0.6910   -2.5680 ca        1 MOL      0.291739
    134 O20        -3.4200   -1.9810   -2.6190 oh        1 MOL     -0.613977
    135 H56        -1.3000    2.5810    0.8130 hn        1 MOL      0.261560
    136 H57        -0.9130    4.9830   -0.7520 h1        1 MOL      0.113412
    137 H58        -0.5650    3.4250   -2.4740 hc        1 MOL      0.083094
    138 H59        -2.2570    4.0990   -2.6610 hc        1 MOL      0.083094
    139 H60        -4.1950    2.5010   -2.4030 ha        1 MOL      0.141605
    140 H61        -0.2080    1.2060   -2.4300 ha        1 MOL      0.141605
    141 H62        -4.9220    0.1910   -2.8120 ha        1 MOL      0.155118
    142 H63        -0.8950   -1.2100   -2.5720 ha        1 MOL      0.155118
    143 H64        -4.3750   -2.0530   -2.6470 ho        1 MOL      0.588525
    144 N13        -3.6610    5.1990   -0.4890 n         1 MOL     -0.400248
    145 C48        -4.9970    5.5400   -0.1150 c3        1 MOL      0.174488
    146 C49        -5.9370    5.4700   -1.2950 c         1 MOL      0.484676
    147 O21        -5.9560    6.2350   -2.2400 o         1 MOL     -0.564489
    148 C50        -4.8480    6.9580    0.3590 c3        1 MOL     -0.057457
    149 C51        -4.1900    7.0970    1.7640 c3        1 MOL     -0.146897
    150 C52        -4.5270    8.4590    2.3650 c         1 MOL      0.720430
    151 O22        -4.5540    9.4690    1.5830 o         1 MOL     -0.681624
    152 O23        -4.8400    8.6140    3.5570 o         1 MOL     -0.681624
    153 H65        -3.2230    5.7830   -1.1860 hn        1 MOL      0.281899
    154 H66        -5.3040    4.8990    0.7120 h1        1 MOL      0.001985
    155 H67        -5.8340    7.3970    0.5070 hc        1 MOL      0.027738
    156 H68        -4.3780    7.5540   -0.4260 hc        1 MOL      0.027738
    157 H69        -3.1070    7.0650    1.6400 hc        1 MOL      0.022705
    158 H70        -4.5730    6.3520    2.4600 hc        1 MOL      0.022705
    159 N14        -6.7720    4.4690   -1.3860 n         1 MOL     -0.457014
    160 C53        -6.7460    3.2090   -0.6980 c3        1 MOL     -0.023748
    161 C54        -7.2940    3.2940    0.7390 c         1 MOL      0.549304
    162 O24        -8.3860    3.8690    0.9730 o         1 MOL     -0.573795
    163 C55        -7.5750    2.2040   -1.5070 c3        1 MOL      0.050268
    164 C56        -7.5150    0.8430   -0.9640 c3        1 MOL      0.141488
    165 C57        -8.2860   -0.1630   -1.8370 c         1 MOL      0.552924
    166 O25        -8.1000   -1.3320   -1.4240 o         1 MOL     -0.618235
    167 O26        -8.9450    0.1200   -2.8470 o         1 MOL     -0.618235
    168 H71        -7.4490    4.6150   -2.1200 hn        1 MOL      0.305316
    169 H72        -5.7080    2.8690   -0.6980 h1        1 MOL      0.061534
    170 H73        -7.1610    2.2610   -2.5120 hc        1 MOL     -0.010364
    171 H74        -8.6100    2.5580   -1.5550 hc        1 MOL     -0.010364
    172 H75        -7.9300    0.8750    0.0350 hc        1 MOL     -0.122980
    173 H76        -6.4450    0.6370   -0.9670 hc        1 MOL     -0.122980
    174 N15        -6.5970    2.6570    1.6840 n         1 MOL     -0.159773
    175 C58        -7.0160    2.5790    3.0890 c3        1 MOL     -0.107242
    176 H77        -8.0180    2.9960    3.1930 h1        1 MOL      0.058141
    177 H78        -7.0230    1.5370    3.4090 h1        1 MOL      0.058141
    178 H79        -6.3210    3.1450    3.7090 h1        1 MOL      0.058141
    179 H80        -5.7680    2.1670    1.3500 hn        1 MOL      0.242842
    180 Ca1        -7.2870   -3.4010   -0.2190 Ca        1 MOL      1.635206
    181 O27        -6.0630   -2.4850   -2.8820 oh        1 MOL     -0.928648
    182 H81        -6.1370   -3.4340   -2.8030 ho        1 MOL      0.427844
    183 H82        -6.9440   -2.1560   -2.7570 ho        1 MOL      0.427844
    184 O28        -7.4990   -1.5740    1.8480 oh        1 MOL     -0.928648
    185 H83        -8.3090   -1.4320    2.3430 ho        1 MOL      0.427844
    186 H84        -6.9830   -0.7830    2.0100 ho        1 MOL      0.427844
    187 O29        -8.5420   -4.0970   -2.5110 oh        1 MOL     -0.928648
    188 H85        -8.9830   -3.4800   -3.1060 ho        1 MOL      0.427844
    189 H86        -9.0990   -4.8760   -2.5110 ho        1 MOL      0.427844
    190 O30        -5.1190   -1.9650    0.3810 oh        1 MOL     -0.928648
    191 H87        -4.4240   -2.3380    0.9270 ho        1 MOL      0.427844
    192 H88        -4.9040   -1.0320    0.3240 ho        1 MOL      0.427844
    193 O31       -10.0390   -3.1110    0.0680 oh        1 MOL     -0.928648
    194 H89       -10.2770   -2.2520    0.4100 ho        1 MOL      0.427844
    195 H90       -10.8550   -3.6070    0.0480 ho        1 MOL      0.427844
@<TRIPOS>BOND
     1    1    2 1   
     2    1    4 1   
     3    1    5 1   
     4    1    6 1   
     5    2    3 2   
     6    2    7 1   
     7    7    8 1   
     8    7   15 1   
     9    8    9 1   
    10    8   11 1   
    11    8   16 1   
    12    9   10 2   
    13    9   19 1   
    14   11   12 1   
    15   11   17 1   
    16   11   18 1   
    17   12   13 1   
    18   12   14 1   
    19   19   20 1   
    20   19   27 1   
    21   20   21 1   
    22   20   23 1   
    23   20   28 1   
    24   21   22 2   
    25   21   38 1   
    26   23   24 1   
    27   23   25 1   
    28   23   29 1   
    29   24   26 1   
    30   24   30 1   
    31   24   31 1   
    32   25   32 1   
    33   25   33 1   
    34   25   34 1   
    35   26   35 1   
    36   26   36 1   
    37   26   37 1   
    38   38   39 1   
    39   38   46 1   
    40   39   40 1   
    41   39   42 1   
    42   39   47 1   
    43   40   41 2   
    44   40   50 1   
    45   42   43 1   
    46   42   48 1   
    47   42   49 1   
    48   43   44 1   
    49   43   45 1   
    50   50   51 1   
    51   50   54 1   
    52   51   52 1   
    53   51   55 1   
    54   51   56 1   
    55   52   53 2   
    56   52   57 1   
    57   57   58 1   
    58   57   65 1   
    59   58   59 1   
    60   58   61 1   
    61   58   66 1   
    62   59   60 2   
    63   59   69 1   
    64   61   62 1   
    65   61   67 1   
    66   61   68 1   
    67   62   63 1   
    68   62   64 1   
    69   69   70 1   
    70   69   73 1   
    71   70   71 1   
    72   70   74 1   
    73   70   75 1   
    74   71   72 2   
    75   71   76 1   
    76   76   77 1   
    77   76   85 1   
    78   77   78 1   
    79   77   80 1   
    80   77   86 1   
    81   78   79 2   
    82   78   93 1   
    83   80   81 1   
    84   80   87 1   
    85   80   88 1   
    86   81   82 1   
    87   81   89 1   
    88   81   90 1   
    89   82   83 1   
    90   82   84 2   
    91   83   91 1   
    92   83   92 1   
    93   93   94 1   
    94   93  100 1   
    95   94   95 1   
    96   94   97 1   
    97   94  101 1   
    98   95   96 2   
    99   95  109 1   
   100   97   98 1   
   101   97   99 1   
   102   97  102 1   
   103   98  103 1   
   104   98  104 1   
   105   98  105 1   
   106   99  106 1   
   107   99  107 1   
   108   99  108 1   
   109  109  110 1   
   110  109  117 1   
   111  110  111 1   
   112  110  113 1   
   113  110  118 1   
   114  111  112 2   
   115  111  123 1   
   116  113  114 1   
   117  113  119 1   
   118  113  120 1   
   119  114  115 1   
   120  114  116 2   
   121  115  121 1   
   122  115  122 1   
   123  123  124 1   
   124  123  135 1   
   125  124  125 1   
   126  124  127 1   
   127  124  136 1   
   128  125  126 2   
   129  125  144 1   
   130  127  128 1   
   131  127  137 1   
   132  127  138 1   
   133  128  129 ar  
   134  128  130 ar  
   135  129  131 ar  
   136  129  139 1   
   137  130  132 ar  
   138  130  140 1   
   139  131  133 ar  
   140  131  141 1   
   141  132  133 ar  
   142  132  142 1   
   143  133  134 1   
   144  134  143 1   
   145  144  145 1   
   146  144  153 1   
   147  145  146 1   
   148  145  148 1   
   149  145  154 1   
   150  146  147 2   
   151  146  159 1   
   152  148  149 1   
   153  148  155 1   
   154  148  156 1   
   155  149  150 1   
   156  149  157 1   
   157  149  158 1   
   158  150  151 1   
   159  150  152 1   
   160  159  160 1   
   161  159  168 1   
   162  160  161 1   
   163  160  163 1   
   164  160  169 1   
   165  161  162 2   
   166  161  174 1   
   167  163  164 1   
   168  163  170 1   
   169  163  171 1   
   170  164  165 1   
   171  164  172 1   
   172  164  173 1   
   173  165  166 1   
   174  165  167 1   
   175  174  175 1   
   176  174  179 1   
   177  175  176 1   
   178  175  177 1   
   179  175  178 1   
   180  181  182 1   
   181  181  183 1   
   182  184  185 1   
   183  184  186 1   
   184  187  188 1   
   185  187  189 1   
   186  190  191 1   
   187  190  192 1   
   188  193  194 1   
   189  193  195 1   
@<TRIPOS>SUBSTRUCTURE
     1 MOL         1 TEMP              0 ****  ****    0 ROOT
