@<TRIPOS>MOLECULE
MOL
  198   191     1     0     0
SMALL
resp


@<TRIPOS>ATOM
      1 C1          0.9170    7.4440    4.2360 c3        1 MOL     -0.241725
      2 C2         -0.3750    6.7310    3.8310 c         1 MOL      0.622777
      3 O1         -1.4580    7.2470    4.0840 o         1 MOL     -0.585770
      4 H1          1.7000    7.2160    3.5110 hc        1 MOL      0.074533
      5 H2          0.7480    8.5200    4.2600 hc        1 MOL      0.074533
      6 H3          1.2270    7.1020    5.2230 hc        1 MOL      0.074533
      7 N1         -0.3230    5.7490    2.9390 n         1 MOL     -0.600935
      8 C3         -1.4520    5.2100    2.2700 c3        1 MOL      0.408197
      9 C4         -1.5200    3.7750    1.9310 c         1 MOL      0.291576
     10 O2         -0.4830    3.0980    1.6880 o         1 MOL     -0.472614
     11 C5         -1.5750    5.9930    0.9750 c3        1 MOL     -0.199790
     12 C6         -0.4170    5.7490   -0.0590 c         1 MOL      0.534569
     13 O3         -0.7750    5.0510   -1.0430 o         1 MOL     -0.616925
     14 O4          0.7490    6.1500    0.1530 o         1 MOL     -0.616925
     15 H4          0.5670    5.2830    2.8100 hn        1 MOL      0.337764
     16 H5         -2.3660    5.3750    2.8490 h1        1 MOL     -0.058841
     17 H6         -1.5230    7.0560    1.2250 hc        1 MOL      0.060398
     18 H7         -2.5120    5.8260    0.4570 hc        1 MOL      0.060398
     19 N2         -2.7890    3.3090    1.7970 n         1 MOL     -0.399884
     20 C7         -3.1780    1.9020    1.6660 c3        1 MOL     -0.434936
     21 C8         -4.2100    1.6730    0.6150 c         1 MOL      0.785426
     22 O5         -4.4540    0.5360    0.3150 o         1 MOL     -0.543346
     23 C9         -3.4080    1.2730    3.0320 c3        1 MOL     -0.068412
     24 C10        -4.6170    1.6530    3.8290 c3        1 MOL      0.012102
     25 C11        -4.5040    1.1600    5.2770 c3        1 MOL      0.174623
     26 C12        -5.5130    1.8230    6.2070 c3        1 MOL     -0.113500
     27 N3         -6.8670    1.6020    5.8520 n4        1 MOL     -0.141346
     28 H8         -3.4510    4.0100    2.1150 hn        1 MOL      0.366054
     29 H9         -2.3440    1.3540    1.2460 h1        1 MOL      0.207365
     30 H10        -2.5570    1.4780    3.6790 hc        1 MOL      0.118100
     31 H11        -3.4860    0.1990    2.9190 hc        1 MOL      0.118100
     32 H12        -5.4940    1.2600    3.3090 hc        1 MOL     -0.006780
     33 H13        -4.6090    2.7480    3.8420 hc        1 MOL     -0.006780
     34 H14        -3.4670    1.3100    5.5560 hc        1 MOL     -0.026324
     35 H15        -4.6960    0.0790    5.2490 hc        1 MOL     -0.026324
     36 H16        -5.2850    2.8900    6.3200 hx        1 MOL      0.096547
     37 H17        -5.3880    1.2830    7.1430 hx        1 MOL      0.096547
     38 H18        -7.2230    2.2440    5.1660 hn        1 MOL      0.246363
     39 H19        -6.9410    0.6790    5.4370 hn        1 MOL      0.246363
     40 H20        -7.4580    1.6630    6.6630 hn        1 MOL      0.246363
     41 N4         -4.6850    2.7290   -0.0580 n         1 MOL     -0.569168
     42 C13        -5.6220    2.5300   -1.1220 c3        1 MOL      0.033880
     43 C14        -5.0140    1.7960   -2.3480 c         1 MOL      0.429163
     44 O6         -3.8300    1.9130   -2.6340 o         1 MOL     -0.539648
     45 C15        -6.2700    3.9260   -1.4810 c3        1 MOL     -0.390315
     46 C16        -5.2540    5.0830   -1.7270 c         1 MOL      0.724844
     47 O7         -5.7140    6.2260   -1.9650 o         1 MOL     -0.676605
     48 O8         -4.0160    4.8970   -1.6910 o         1 MOL     -0.676605
     49 H21        -4.0740    3.5190    0.0700 hn        1 MOL      0.285817
     50 H22        -6.4170    1.8750   -0.7640 h1        1 MOL      0.105041
     51 H23        -6.8430    4.2290   -0.6000 hc        1 MOL      0.130315
     52 H24        -7.0560    3.8400   -2.2260 hc        1 MOL      0.130315
     53 N5         -5.7810    1.0990   -3.1740 n         1 MOL     -0.447330
     54 C17        -7.2520    0.8090   -3.0500 c3        1 MOL      0.010333
     55 C18        -7.6380   -0.4990   -2.4990 c         1 MOL      0.519762
     56 O9         -8.7200   -0.6920   -1.9440 o         1 MOL     -0.547726
     57 H25        -5.3750    0.7740   -4.0400 hn        1 MOL      0.298936
     58 H26        -7.7640    0.9800   -3.9950 h1        1 MOL      0.076029
     59 H27        -7.6970    1.5450   -2.3810 h1        1 MOL      0.076029
     60 N6         -6.7530   -1.4840   -2.6370 n         1 MOL     -0.187086
     61 C19        -6.9090   -2.8780   -1.9950 c3        1 MOL     -0.299924
     62 C20        -5.5610   -3.6500   -2.1170 c         1 MOL      0.509845
     63 O10        -4.4870   -3.1410   -2.5450 o         1 MOL     -0.487823
     64 C21        -8.0600   -3.5800   -2.8250 c3        1 MOL     -0.178816
     65 C22        -8.1010   -3.3890   -4.3830 c         1 MOL      0.672638
     66 O11        -9.0920   -2.8860   -4.9130 o         1 MOL     -0.647418
     67 O12        -7.0540   -3.7160   -5.0270 o         1 MOL     -0.647418
     68 H28        -5.9460   -1.3680   -3.2220 hn        1 MOL      0.242238
     69 H29        -7.1540   -2.8710   -0.9290 h1        1 MOL      0.160987
     70 H30        -9.0070   -3.1070   -2.5810 hc        1 MOL      0.050844
     71 H31        -8.1680   -4.6240   -2.5570 hc        1 MOL      0.050844
     72 N7         -5.5300   -4.8720   -1.6370 n         1 MOL     -0.322004
     73 C23        -4.2730   -5.6830   -1.7600 c3        1 MOL     -0.107736
     74 C24        -3.2890   -5.5400   -0.5500 c         1 MOL      0.582748
     75 O13        -2.1360   -5.4420   -0.7540 o         1 MOL     -0.558326
     76 H32        -6.4000   -5.3550   -1.5330 hn        1 MOL      0.275628
     77 H33        -3.7450   -5.5280   -2.7070 h1        1 MOL      0.101025
     78 H34        -4.4450   -6.7570   -1.8510 h1        1 MOL      0.101025
     79 N8         -3.8400   -5.3620    0.6170 n         1 MOL     -0.540903
     80 C25        -3.0890   -4.9660    1.8810 c3        1 MOL      0.209705
     81 C26        -2.3780   -3.6080    1.8400 c         1 MOL      0.466865
     82 O14        -2.6460   -2.7080    1.0830 o         1 MOL     -0.439119
     83 C27        -4.0470   -5.0930    3.0400 c3        1 MOL      0.281072
     84 C28        -5.1650   -4.1050    3.2930 c3        1 MOL     -0.056263
     85 O15        -4.7090   -6.3320    2.8790 oh        1 MOL     -0.582728
     86 H35        -4.8390   -5.3000    0.5860 hn        1 MOL      0.253080
     87 H36        -2.2630   -5.6400    2.1180 h1        1 MOL      0.003219
     88 H37        -3.3740   -5.1520    3.8930 h1        1 MOL     -0.023413
     89 H38        -4.0080   -6.9840    2.7920 ho        1 MOL      0.365454
     90 H39        -5.7860   -3.8630    2.4250 hc        1 MOL      0.019122
     91 H40        -5.6760   -4.4240    4.1990 hc        1 MOL      0.019122
     92 H41        -4.7130   -3.1440    3.5450 hc        1 MOL      0.019122
     93 N9         -1.4330   -3.4970    2.7510 n         1 MOL     -0.388055
     94 C29        -0.6590   -2.2660    3.1160 c3        1 MOL     -0.088934
     95 C30         0.6690   -2.1240    2.2080 c         1 MOL      0.585408
     96 O16         1.0860   -1.0270    1.8320 o         1 MOL     -0.516651
     97 C31        -0.3890   -2.0260    4.6580 c3        1 MOL      0.210800
     98 C32        -1.8010   -2.1000    5.3440 c3        1 MOL      0.052921
     99 C33         0.2470   -0.6200    4.8200 c3        1 MOL     -0.311634
    100 C34        -1.7200   -2.2220    6.9180 c3        1 MOL     -0.229576
    101 H42        -1.2880   -4.2390    3.4350 hn        1 MOL      0.237921
    102 H43        -1.3710   -1.4840    2.8750 h1        1 MOL      0.031770
    103 H44         0.2720   -2.8000    5.0440 hc        1 MOL      0.004973
    104 H45        -2.1750   -3.0990    5.1130 hc        1 MOL     -0.029546
    105 H46        -2.4040   -1.2470    5.0380 hc        1 MOL     -0.029546
    106 H47         1.2750   -0.5870    4.4650 hc        1 MOL      0.089799
    107 H48        -0.3810    0.1490    4.3540 hc        1 MOL      0.089799
    108 H49         0.2070   -0.3740    5.8780 hc        1 MOL      0.089799
    109 H50        -2.6560   -2.6240    7.3070 hc        1 MOL      0.053457
    110 H51        -0.9080   -2.9170    7.1300 hc        1 MOL      0.053457
    111 H52        -1.5240   -1.2590    7.3720 hc        1 MOL      0.053457
    112 N10         1.2500   -3.2760    1.8700 n         1 MOL     -0.538624
    113 C35         1.9560   -3.4030    0.6350 c3        1 MOL     -0.061145
    114 C36         3.2740   -4.1960    0.8780 c         1 MOL      0.743930
    115 O17         3.3270   -5.0990    1.6940 o         1 MOL     -0.550171
    116 C37         0.9880   -4.1690   -0.3330 c3        1 MOL      0.409482
    117 C38         1.5190   -4.3170   -1.8140 c3        1 MOL     -0.217131
    118 O18         0.5300   -5.3660    0.2500 oh        1 MOL     -0.688123
    119 H53         0.9500   -4.1450    2.2990 hn        1 MOL      0.295571
    120 H54         2.1050   -2.4170    0.2180 h1        1 MOL      0.079992
    121 H55         0.1230   -3.5300   -0.5440 h1        1 MOL      0.036198
    122 H56        -0.2950   -5.6670   -0.1440 ho        1 MOL      0.430055
    123 H57         1.6280   -3.3280   -2.2670 hc        1 MOL      0.041675
    124 H58         2.4390   -4.8860   -1.9370 hc        1 MOL      0.041675
    125 H59         0.6800   -4.7980   -2.3130 hc        1 MOL      0.041675
    126 N11         4.3260   -3.8100    0.1740 n         1 MOL     -0.629787
    127 C39         5.5810   -4.5840    0.2630 c3        1 MOL      0.045242
    128 C40         6.7560   -3.5980    0.2600 c         1 MOL      0.608476
    129 O19         7.6400   -3.6640    1.0940 o         1 MOL     -0.579269
    130 C41         5.5870   -5.6350   -0.8540 c3        1 MOL      0.206238
    131 C42         6.9570   -6.1920   -1.0730 c3        1 MOL     -0.337176
    132 O20         5.2950   -5.0840   -2.0920 oh        1 MOL     -0.617752
    133 H60         4.1650   -3.0850   -0.5020 hn        1 MOL      0.316615
    134 H61         5.5750   -5.0670    1.2440 h1        1 MOL      0.094095
    135 H62         4.8310   -6.3430   -0.5270 h1        1 MOL      0.066018
    136 H63         5.2420   -5.8600   -2.6450 ho        1 MOL      0.422016
    137 H64         7.6180   -5.5810   -1.7010 hc        1 MOL      0.087600
    138 H65         7.4590   -6.4440   -0.1410 hc        1 MOL      0.087600
    139 H66         6.8130   -7.1140   -1.6480 hc        1 MOL      0.087600
    140 N12         6.8230   -2.7390   -0.7210 n         1 MOL     -0.439646
    141 C43         7.9160   -1.7420   -0.8990 c3        1 MOL      0.089075
    142 C44         7.2550   -0.4220   -1.0160 c         1 MOL      0.414174
    143 O21         6.3080   -0.3350   -1.8250 o         1 MOL     -0.494717
    144 C45         8.8050   -2.1140   -2.1780 c3        1 MOL     -0.068076
    145 C46         9.9230   -1.0670   -2.5130 c3        1 MOL     -0.159993
    146 C47        11.1080   -1.1340   -1.4660 c3        1 MOL     -0.091012
    147 C48        12.2820   -0.2880   -1.9420 c3        1 MOL      0.195948
    148 N13        13.4850   -0.6420   -1.1630 n4        1 MOL     -0.499113
    149 H67         6.0390   -2.7080   -1.3570 hn        1 MOL      0.301855
    150 H68         8.6410   -1.6930   -0.0840 h1        1 MOL      0.044636
    151 H69         8.1330   -2.2650   -3.0310 hc        1 MOL      0.071161
    152 H70         9.3060   -3.0660   -2.0140 hc        1 MOL      0.071161
    153 H71         9.6120   -0.0190   -2.4840 hc        1 MOL      0.081533
    154 H72        10.2950   -1.3480   -3.4980 hc        1 MOL      0.081533
    155 H73        11.4240   -2.1770   -1.3900 hc        1 MOL      0.042715
    156 H74        10.8070   -0.8910   -0.4490 hc        1 MOL      0.042715
    157 H75        12.0070    0.7490   -1.7940 hx        1 MOL      0.036706
    158 H76        12.4160   -0.4820   -3.0070 hx        1 MOL      0.036706
    159 H77        13.8320   -1.5080   -1.5420 hn        1 MOL      0.338425
    160 H78        14.2000    0.0690   -1.2100 hn        1 MOL      0.338425
    161 H79        13.2170   -0.6690   -0.1890 hn        1 MOL      0.338425
    162 N14         7.7070    0.7290   -0.4120 n         1 MOL     -0.438079
    163 C49         7.2910    2.0920   -0.7580 c3        1 MOL      0.591756
    164 C50         5.8050    2.2770   -0.4570 c         1 MOL      0.259213
    165 O22         5.1300    2.6980   -1.3690 o         1 MOL     -0.485493
    166 C51         8.1810    3.1610   -0.2040 c3        1 MOL     -0.202771
    167 C52         9.6380    3.0760   -0.6390 c3        1 MOL     -0.035201
    168 C53        10.6200    4.0600    0.0140 c         1 MOL      0.628723
    169 O23        11.7660    3.7660    0.2820 o         1 MOL     -0.657536
    170 O24        10.2440    5.2010    0.4060 o         1 MOL     -0.657536
    171 H80         8.5280    0.5970    0.1680 hn        1 MOL      0.256591
    172 H81         7.3370    2.1510   -1.8410 h1        1 MOL     -0.063138
    173 H82         8.2080    3.0940    0.8770 hc        1 MOL      0.060341
    174 H83         7.9420    4.1680   -0.5440 hc        1 MOL      0.060341
    175 H84         9.7160    3.1340   -1.7270 hc        1 MOL     -0.036369
    176 H85        10.0550    2.1040   -0.3860 hc        1 MOL     -0.036369
    177 N15         5.2340    2.0080    0.7560 n         1 MOL     -0.407286
    178 C54         5.8290    1.4150    2.0050 c3        1 MOL     -0.056980
    179 H86         6.9150    1.3790    1.9080 h1        1 MOL      0.054708
    180 H87         5.5620    2.0320    2.8630 h1        1 MOL      0.054708
    181 H88         5.4440    0.4060    2.1490 h1        1 MOL      0.054708
    182 H89         4.2290    1.9050    0.6770 hn        1 MOL      0.335637
    183 Ca1        -1.9280    3.7950   -2.8680 Ca        1 MOL      1.686721
    184 O25         0.7410    3.5880   -3.6120 oh        1 MOL     -0.824941
    185 H90         1.3280    3.1240   -3.0070 ho        1 MOL      0.413244
    186 H91         0.9040    3.1830   -4.4600 ho        1 MOL      0.413244
    187 O26        -3.7430    3.9680   -4.9800 oh        1 MOL     -0.824941
    188 H92        -4.0630    3.3780   -5.6530 ho        1 MOL      0.413244
    189 H93        -4.2770    4.7510   -5.0750 ho        1 MOL      0.413244
    190 O27        -1.1400    5.8530   -4.8440 oh        1 MOL     -0.824941
    191 H94        -0.8400    6.7560   -4.6850 ho        1 MOL      0.413244
    192 H95        -0.8550    5.6640   -5.7380 ho        1 MOL      0.413244
    193 O28        -0.9850    2.0150   -0.9620 oh        1 MOL     -0.824941
    194 H96        -0.9770    2.3100   -0.0530 ho        1 MOL      0.413244
    195 H97        -0.6360    1.1270   -0.9380 ho        1 MOL      0.413244
    196 O29        -1.8100    1.8890   -4.5930 oh        1 MOL     -0.824941
    197 H98        -1.5790    1.7520   -5.5170 ho        1 MOL      0.413244
    198 H99        -2.7250    1.5820   -4.5360 ho        1 MOL      0.413244
@<TRIPOS>BOND
     1    1    2 1   
     2    1    4 1   
     3    1    5 1   
     4    1    6 1   
     5    2    3 2   
     6    2    7 1   
     7    7    8 1   
     8    7   15 1   
     9    8    9 1   
    10    8   11 1   
    11    8   16 1   
    12    9   10 2   
    13    9   19 1   
    14   11   12 1   
    15   11   17 1   
    16   11   18 1   
    17   12   13 1   
    18   12   14 1   
    19   19   20 1   
    20   19   28 1   
    21   20   21 1   
    22   20   23 1   
    23   20   29 1   
    24   21   22 2   
    25   21   41 1   
    26   23   24 1   
    27   23   30 1   
    28   23   31 1   
    29   24   25 1   
    30   24   32 1   
    31   24   33 1   
    32   25   26 1   
    33   25   34 1   
    34   25   35 1   
    35   26   27 1   
    36   26   36 1   
    37   26   37 1   
    38   27   38 1   
    39   27   39 1   
    40   27   40 1   
    41   41   42 1   
    42   41   49 1   
    43   42   43 1   
    44   42   45 1   
    45   42   50 1   
    46   43   44 2   
    47   43   53 1   
    48   45   46 1   
    49   45   51 1   
    50   45   52 1   
    51   46   47 1   
    52   46   48 1   
    53   53   54 1   
    54   53   57 1   
    55   54   55 1   
    56   54   58 1   
    57   54   59 1   
    58   55   56 2   
    59   55   60 1   
    60   60   61 1   
    61   60   68 1   
    62   61   62 1   
    63   61   64 1   
    64   61   69 1   
    65   62   63 2   
    66   62   72 1   
    67   64   65 1   
    68   64   70 1   
    69   64   71 1   
    70   65   66 1   
    71   65   67 1   
    72   72   73 1   
    73   72   76 1   
    74   73   74 1   
    75   73   77 1   
    76   73   78 1   
    77   74   75 2   
    78   74   79 1   
    79   79   80 1   
    80   79   86 1   
    81   80   81 1   
    82   80   83 1   
    83   80   87 1   
    84   81   82 2   
    85   81   93 1   
    86   83   84 1   
    87   83   85 1   
    88   83   88 1   
    89   84   90 1   
    90   84   91 1   
    91   84   92 1   
    92   85   89 1   
    93   93   94 1   
    94   93  101 1   
    95   94   95 1   
    96   94   97 1   
    97   94  102 1   
    98   95   96 2   
    99   95  112 1   
   100   97   98 1   
   101   97   99 1   
   102   97  103 1   
   103   98  100 1   
   104   98  104 1   
   105   98  105 1   
   106   99  106 1   
   107   99  107 1   
   108   99  108 1   
   109  100  109 1   
   110  100  110 1   
   111  100  111 1   
   112  112  113 1   
   113  112  119 1   
   114  113  114 1   
   115  113  116 1   
   116  113  120 1   
   117  114  115 2   
   118  114  126 1   
   119  116  117 1   
   120  116  118 1   
   121  116  121 1   
   122  117  123 1   
   123  117  124 1   
   124  117  125 1   
   125  118  122 1   
   126  126  127 1   
   127  126  133 1   
   128  127  128 1   
   129  127  130 1   
   130  127  134 1   
   131  128  129 2   
   132  128  140 1   
   133  130  131 1   
   134  130  132 1   
   135  130  135 1   
   136  131  137 1   
   137  131  138 1   
   138  131  139 1   
   139  132  136 1   
   140  140  141 1   
   141  140  149 1   
   142  141  142 1   
   143  141  144 1   
   144  141  150 1   
   145  142  143 2   
   146  142  162 1   
   147  144  145 1   
   148  144  151 1   
   149  144  152 1   
   150  145  146 1   
   151  145  153 1   
   152  145  154 1   
   153  146  147 1   
   154  146  155 1   
   155  146  156 1   
   156  147  148 1   
   157  147  157 1   
   158  147  158 1   
   159  148  159 1   
   160  148  160 1   
   161  148  161 1   
   162  162  163 1   
   163  162  171 1   
   164  163  164 1   
   165  163  166 1   
   166  163  172 1   
   167  164  165 2   
   168  164  177 1   
   169  166  167 1   
   170  166  173 1   
   171  166  174 1   
   172  167  168 1   
   173  167  175 1   
   174  167  176 1   
   175  168  169 1   
   176  168  170 1   
   177  177  178 1   
   178  177  182 1   
   179  178  179 1   
   180  178  180 1   
   181  178  181 1   
   182  184  185 1   
   183  184  186 1   
   184  187  188 1   
   185  187  189 1   
   186  190  191 1   
   187  190  192 1   
   188  193  194 1   
   189  193  195 1   
   190  196  197 1   
   191  196  198 1   
@<TRIPOS>SUBSTRUCTURE
     1 MOL         1 TEMP              0 ****  ****    0 ROOT
