@<TRIPOS>MOLECULE
MOL
  186   183     1     0     0
SMALL
resp


@<TRIPOS>ATOM
      1 C1        -11.1260    4.7220    4.4640 c3        1 MOL     -0.663075
      2 C2        -11.0220    3.9890    3.0740 c         1 MOL      1.002248
      3 O1        -11.3590    2.8410    2.9330 o         1 MOL     -0.600579
      4 H1        -10.9190    5.7830    4.3310 hc        1 MOL      0.159537
      5 H2        -12.1310    4.5960    4.8670 hc        1 MOL      0.159537
      6 H3        -10.3990    4.2940    5.1560 hc        1 MOL      0.159537
      7 N1        -10.5630    4.7770    2.0690 n         1 MOL     -0.692168
      8 C3        -10.6680    4.2580    0.7200 c3        1 MOL     -0.239322
      9 C4         -9.5940    3.1120    0.4520 c         1 MOL      0.298459
     10 O2         -8.5020    3.1870    0.9240 o         1 MOL     -0.442284
     11 C5        -10.6340    5.4350   -0.3400 c3        1 MOL     -0.056634
     12 C6         -9.4190    6.3480   -0.3850 c         1 MOL      0.827486
     13 O3         -9.5650    7.5220   -0.1490 o         1 MOL     -0.765237
     14 O4         -8.3020    5.8120   -0.5410 o         1 MOL     -0.765237
     15 H4        -10.3850    5.7670    2.1510 hn        1 MOL      0.358679
     16 H5        -11.6370    3.7660    0.7090 h1        1 MOL      0.114899
     17 H6        -11.4960    6.0690   -0.1260 hc        1 MOL      0.064467
     18 H7        -10.7500    5.0240   -1.3360 hc        1 MOL      0.064467
     19 N2        -10.0140    2.1180   -0.3500 n         1 MOL     -0.028959
     20 C7         -9.5680    0.6960   -0.4700 c3        1 MOL     -0.212805
     21 C8         -8.2380    0.5300   -1.1740 c         1 MOL      0.576783
     22 O5         -8.0890    0.1060   -2.3090 o         1 MOL     -0.479237
     23 C9        -10.7700   -0.1600   -0.9850 c3        1 MOL      0.035720
     24 C10       -10.6240   -1.6320   -0.6020 c3        1 MOL     -0.101636
     25 C11        -9.6180   -2.4480   -1.3570 c3        1 MOL     -0.074353
     26 C12        -9.7360   -2.2480   -2.9620 c3        1 MOL      0.040240
     27 N3        -10.6500   -3.1420   -3.6310 n4        1 MOL     -0.233551
     28 H8        -10.7750    2.2900   -0.9870 hn        1 MOL      0.201499
     29 H9         -9.3840    0.3170    0.5340 h1        1 MOL      0.105204
     30 H10       -10.8070    0.0250   -2.0570 hc        1 MOL      0.008747
     31 H11       -11.7300    0.1700   -0.5900 hc        1 MOL      0.008747
     32 H12       -11.6470   -1.9880   -0.7290 hc        1 MOL      0.046829
     33 H13       -10.3360   -1.7800    0.4490 hc        1 MOL      0.046829
     34 H14        -9.8630   -3.4870   -1.1170 hc        1 MOL      0.068338
     35 H15        -8.6370   -2.2010   -0.9760 hc        1 MOL      0.068338
     36 H16        -8.7130   -2.3620   -3.3240 hx        1 MOL      0.062863
     37 H17       -10.1070   -1.2520   -3.1800 hx        1 MOL      0.062863
     38 H18       -10.5260   -3.0710   -4.6260 hn        1 MOL      0.283888
     39 H19       -10.4140   -4.0680   -3.3160 hn        1 MOL      0.283888
     40 H20       -11.6230   -3.0210   -3.3610 hn        1 MOL      0.283888
     41 N4         -7.2140    1.1130   -0.6120 n         1 MOL     -0.213609
     42 C13        -5.7850    0.9250   -0.9100 c3        1 MOL     -0.346503
     43 C14        -4.8530    1.4610    0.1750 c         1 MOL      0.525538
     44 O6         -5.1760    2.4110    0.8720 o         1 MOL     -0.634828
     45 C15        -5.3850    1.7030   -2.1660 c3        1 MOL     -0.133311
     46 C16        -6.0570    3.0380   -2.3820 c         1 MOL      0.500414
     47 O7         -6.3860    3.3550   -3.5600 o         1 MOL     -0.611399
     48 O8         -6.2330    3.7480   -1.3660 o         1 MOL     -0.611399
     49 H21        -7.4540    1.7820    0.1060 hn        1 MOL      0.256088
     50 H22        -5.5230   -0.1030   -1.1820 h1        1 MOL      0.192759
     51 H23        -5.6580    1.0890   -3.0260 hc        1 MOL      0.087263
     52 H24        -4.3020    1.8280   -2.2570 hc        1 MOL      0.087263
     53 N5         -3.6470    0.9270    0.3730 n         1 MOL     -0.333486
     54 C17        -3.1630   -0.2210   -0.3050 c3        1 MOL      0.018762
     55 C18        -3.7950   -1.6270    0.0740 c         1 MOL      0.627286
     56 O9         -4.2650   -1.8820    1.1950 o         1 MOL     -0.572159
     57 H25        -3.0680    1.4450    1.0180 hn        1 MOL      0.263554
     58 H26        -2.1010   -0.4320   -0.1460 h1        1 MOL      0.026057
     59 H27        -3.3170   -0.0670   -1.3700 h1        1 MOL      0.026057
     60 N6         -4.0110   -2.4900   -0.9500 n         1 MOL     -0.461493
     61 C19        -4.9100   -3.6760   -0.9380 c3        1 MOL      0.069315
     62 C20        -4.1980   -5.0110   -0.8470 c         1 MOL      0.531656
     63 O10        -3.5550   -5.4450   -1.7740 o         1 MOL     -0.496987
     64 C21        -5.7810   -3.6500   -2.2210 c3        1 MOL     -0.036773
     65 C22        -7.0480   -4.6150   -2.1000 c         1 MOL      0.710901
     66 O11        -7.4450   -4.8870   -0.9440 o         1 MOL     -0.723314
     67 O12        -7.4960   -5.0730   -3.2020 o         1 MOL     -0.723314
     68 H28        -3.5580   -2.2590   -1.8190 hn        1 MOL      0.259661
     69 H29        -5.5590   -3.5170   -0.0760 h1        1 MOL      0.038402
     70 H30        -5.1890   -3.9740   -3.0870 hc        1 MOL     -0.014964
     71 H31        -6.2210   -2.6530   -2.2870 hc        1 MOL     -0.014964
     72 N7         -4.2560   -5.6450    0.3680 n         1 MOL     -0.248428
     73 C23        -3.5460   -6.8110    0.7650 c3        1 MOL     -0.381870
     74 C24        -2.0310   -6.5480    0.8210 c         1 MOL      0.568770
     75 O13        -1.2830   -7.5180    0.7330 o         1 MOL     -0.546046
     76 H32        -4.9070   -5.2460    1.0390 hn        1 MOL      0.246901
     77 H33        -3.8170   -7.5000   -0.0360 h1        1 MOL      0.174326
     78 H34        -3.9290   -7.0480    1.7550 h1        1 MOL      0.174326
     79 N8         -1.6160   -5.2920    0.9700 n         1 MOL     -0.159866
     80 C25        -0.2820   -4.8820    1.3010 c3        1 MOL      0.067355
     81 C26         0.0990   -3.5600    0.6300 c         1 MOL      0.516079
     82 O14        -0.7640   -3.0630   -0.0670 o         1 MOL     -0.493358
     83 C27        -0.0820   -4.8320    2.8030 c3        1 MOL      0.348934
     84 C28        -0.9350   -3.8060    3.5200 c3        1 MOL     -0.331065
     85 O15        -0.3260   -6.0960    3.2690 oh        1 MOL     -0.596775
     86 H35        -2.2180   -4.5120    0.7170 hn        1 MOL      0.060003
     87 H36         0.3610   -5.6260    0.8400 h1        1 MOL     -0.011548
     88 H37         0.9740   -4.5800    2.8920 h1        1 MOL     -0.053450
     89 H38         0.4290   -6.5870    2.9610 ho        1 MOL      0.384159
     90 H39        -0.3640   -3.4360    4.3780 hc        1 MOL      0.096893
     91 H40        -1.2730   -2.9280    2.9700 hc        1 MOL      0.096893
     92 H41        -1.8650   -4.2620    3.8410 hc        1 MOL      0.096893
     93 N9          1.3670   -3.0870    0.6730 n         1 MOL     -0.295094
     94 C29         1.8480   -1.9050    0.1410 c3        1 MOL     -0.325780
     95 C30         3.3170   -2.0920   -0.4360 c         1 MOL      0.746415
     96 O16         3.7110   -1.2900   -1.2630 o         1 MOL     -0.563220
     97 C31         1.8320   -0.6770    1.1650 c3        1 MOL      0.161037
     98 C32         2.6060   -1.0380    2.4560 c3        1 MOL      0.005225
     99 C33         0.4500   -0.2920    1.4750 c3        1 MOL     -0.218823
    100 C34         2.6770   -0.0000    3.4910 c3        1 MOL     -0.182109
    101 H42         2.0340   -3.6630    1.1710 hn        1 MOL      0.200675
    102 H43         1.1830   -1.7090   -0.6990 h1        1 MOL      0.163093
    103 H44         2.2880    0.2150    0.7260 hc        1 MOL      0.032801
    104 H45         3.6440   -1.2680    2.1990 hc        1 MOL      0.012852
    105 H46         2.0310   -1.8580    2.8740 hc        1 MOL      0.012852
    106 H47        -0.2060   -1.0010    1.9830 hc        1 MOL      0.055624
    107 H48         0.3320    0.6180    2.0590 hc        1 MOL      0.055624
    108 H49        -0.0690   -0.1940    0.5150 hc        1 MOL      0.055624
    109 H50         1.6880    0.3680    3.7640 hc        1 MOL      0.049210
    110 H51         3.1270   -0.2320    4.4580 hc        1 MOL      0.049210
    111 H52         3.3050    0.8520    3.1970 hc        1 MOL      0.049210
    112 N10         4.1060   -3.0130    0.0640 n         1 MOL     -0.621017
    113 C35         5.5450   -3.2780   -0.4140 c3        1 MOL      0.020074
    114 C36         6.5820   -3.0110    0.7180 c         1 MOL      0.681297
    115 O17         6.4480   -3.3390    1.8990 o         1 MOL     -0.567199
    116 C37         5.7180   -4.7270   -0.9340 c3        1 MOL      0.296017
    117 C38         4.8490   -4.8960   -2.1530 c3        1 MOL     -0.278477
    118 O18         7.0060   -4.8840   -1.3110 oh        1 MOL     -0.627362
    119 H53         3.7620   -3.7110    0.7100 hn        1 MOL      0.300664
    120 H54         5.6870   -2.5830   -1.2420 h1        1 MOL      0.117869
    121 H55         5.4380   -5.4000   -0.1290 h1        1 MOL      0.011547
    122 H56         7.0630   -5.7670   -1.6900 ho        1 MOL      0.410529
    123 H57         4.8860   -5.9140   -2.5520 hc        1 MOL      0.080604
    124 H58         3.8090   -4.7130   -1.8730 hc        1 MOL      0.080604
    125 H59         5.1290   -4.2140   -2.9480 hc        1 MOL      0.080604
    126 N11         7.6870   -2.4090    0.3030 n         1 MOL     -0.604157
    127 C39         8.8770   -2.1780    1.2010 c3        1 MOL      0.042989
    128 C40         9.6290   -0.8160    1.2370 c         1 MOL      0.657855
    129 O19        10.1590   -0.4590    2.2590 o         1 MOL     -0.553240
    130 C41         9.8790   -3.3820    0.9550 c3        1 MOL      0.326765
    131 C42        10.9620   -3.5320    2.0470 c3        1 MOL     -0.366067
    132 O20        10.4210   -3.2300   -0.2910 oh        1 MOL     -0.648943
    133 H60         7.7430   -2.0860   -0.6540 hn        1 MOL      0.320652
    134 H61         8.5250   -2.3060    2.2260 h1        1 MOL      0.096869
    135 H62         9.2590   -4.2870    1.0100 h1        1 MOL      0.017915
    136 H63        10.6610   -4.1030   -0.6200 ho        1 MOL      0.417158
    137 H64        11.3560   -2.5660    2.3550 hc        1 MOL      0.088473
    138 H65        10.5030   -3.8820    2.9670 hc        1 MOL      0.088473
    139 H66        11.7710   -4.2370    1.8210 hc        1 MOL      0.088473
    140 N12         9.6420   -0.1110    0.0710 n         1 MOL     -0.600026
    141 C43        10.4070    1.1730   -0.1470 c3        1 MOL      0.099614
    142 C44         9.6810    2.2150   -0.9390 c         1 MOL      0.485472
    143 O21         9.0440    1.9560   -1.9660 o         1 MOL     -0.488258
    144 C45        11.6920    0.7820   -0.8940 c3        1 MOL     -0.023208
    145 C46        12.8010    1.8860   -0.8760 c3        1 MOL     -0.166303
    146 C47        14.1670    1.4220   -1.4120 c3        1 MOL      0.162338
    147 C48        14.7400    0.1640   -0.9700 c3        1 MOL     -0.013193
    148 N13        15.1100    0.1650    0.4440 n4        1 MOL     -0.257163
    149 H67         9.2590   -0.6250   -0.7180 hn        1 MOL      0.326817
    150 H68        10.7310    1.5360    0.8300 h1        1 MOL      0.067451
    151 H69        11.3910    0.5330   -1.9080 hc        1 MOL      0.049934
    152 H70        12.1250   -0.0840   -0.4020 hc        1 MOL      0.049934
    153 H71        12.9410    2.3050    0.1230 hc        1 MOL      0.017387
    154 H72        12.5020    2.6700   -1.5800 hc        1 MOL      0.017387
    155 H73        14.8780    2.2340   -1.2170 hc        1 MOL      0.026333
    156 H74        14.1650    1.3900   -2.5060 hc        1 MOL      0.026333
    157 H75        15.5770   -0.0350   -1.6500 hx        1 MOL      0.056696
    158 H76        13.9580   -0.5880   -1.0680 hx        1 MOL      0.056696
    159 H77        15.5290   -0.7190    0.6850 hn        1 MOL      0.259367
    160 H78        15.8630    0.8090    0.6110 hn        1 MOL      0.259367
    161 H79        14.2750    0.2860    1.0040 hn        1 MOL      0.259367
    162 N14         9.7330    3.4910   -0.5360 n         1 MOL     -0.357086
    163 C49         9.0270    4.6130   -1.2280 c3        1 MOL      0.230217
    164 C50         7.4360    4.6290   -1.0520 c         1 MOL      0.309940
    165 O22         6.7360    4.3940   -2.0450 o         1 MOL     -0.501522
    166 C51         9.6510    5.9910   -0.8820 c3        1 MOL      0.008915
    167 C52        11.1220    5.9920   -1.3630 c3        1 MOL     -0.381265
    168 C53        11.8850    7.2280   -0.8470 c         1 MOL      0.775257
    169 O23        12.7990    7.7080   -1.4580 o         1 MOL     -0.681196
    170 O24        11.5230    7.7660    0.2090 o         1 MOL     -0.681196
    171 H80        10.1180    3.6990    0.3730 hn        1 MOL      0.247381
    172 H81         9.1600    4.4710   -2.3050 h1        1 MOL      0.032125
    173 H82         9.5200    6.2910    0.1560 hc        1 MOL      0.037466
    174 H83         9.1260    6.7570   -1.4470 hc        1 MOL      0.037466
    175 H84        11.1740    5.8460   -2.4380 hc        1 MOL      0.084864
    176 H85        11.6680    5.1520   -0.9310 hc        1 MOL      0.084864
    177 N15         6.7920    4.6430    0.1360 n         1 MOL     -0.319150
    178 C54         7.4320    4.8560    1.4750 c3        1 MOL     -0.055152
    179 H86         7.4950    5.9240    1.6810 h1        1 MOL      0.047840
    180 H87         6.8310    4.3720    2.2460 h1        1 MOL      0.047840
    181 H88         8.4340    4.4270    1.4720 h1        1 MOL      0.047840
    182 H89         5.7930    4.7380    0.0560 hn        1 MOL      0.286231
    183 Ca1        -6.3060    4.8940    0.9790 Ca        1 MOL      1.652442
    184 O25        -6.6940    3.7030    3.1900 oh        1 MOL     -0.810508
    185 H90        -7.3840    3.5620    3.8380 ho        1 MOL      0.410074
    186 H91        -5.8920    3.7780    3.7070 ho        1 MOL      0.410074
@<TRIPOS>BOND
     1    1    2 1   
     2    1    4 1   
     3    1    5 1   
     4    1    6 1   
     5    2    3 2   
     6    2    7 1   
     7    7    8 1   
     8    7   15 1   
     9    8    9 1   
    10    8   11 1   
    11    8   16 1   
    12    9   10 2   
    13    9   19 1   
    14   11   12 1   
    15   11   17 1   
    16   11   18 1   
    17   12   13 1   
    18   12   14 1   
    19   19   20 1   
    20   19   28 1   
    21   20   21 1   
    22   20   23 1   
    23   20   29 1   
    24   21   22 2   
    25   21   41 1   
    26   23   24 1   
    27   23   30 1   
    28   23   31 1   
    29   24   25 1   
    30   24   32 1   
    31   24   33 1   
    32   25   26 1   
    33   25   34 1   
    34   25   35 1   
    35   26   27 1   
    36   26   36 1   
    37   26   37 1   
    38   27   38 1   
    39   27   39 1   
    40   27   40 1   
    41   41   42 1   
    42   41   49 1   
    43   42   43 1   
    44   42   45 1   
    45   42   50 1   
    46   43   44 2   
    47   43   53 1   
    48   45   46 1   
    49   45   51 1   
    50   45   52 1   
    51   46   47 1   
    52   46   48 1   
    53   53   54 1   
    54   53   57 1   
    55   54   55 1   
    56   54   58 1   
    57   54   59 1   
    58   55   56 2   
    59   55   60 1   
    60   60   61 1   
    61   60   68 1   
    62   61   62 1   
    63   61   64 1   
    64   61   69 1   
    65   62   63 2   
    66   62   72 1   
    67   64   65 1   
    68   64   70 1   
    69   64   71 1   
    70   65   66 1   
    71   65   67 1   
    72   72   73 1   
    73   72   76 1   
    74   73   74 1   
    75   73   77 1   
    76   73   78 1   
    77   74   75 2   
    78   74   79 1   
    79   79   80 1   
    80   79   86 1   
    81   80   81 1   
    82   80   83 1   
    83   80   87 1   
    84   81   82 2   
    85   81   93 1   
    86   83   84 1   
    87   83   85 1   
    88   83   88 1   
    89   84   90 1   
    90   84   91 1   
    91   84   92 1   
    92   85   89 1   
    93   93   94 1   
    94   93  101 1   
    95   94   95 1   
    96   94   97 1   
    97   94  102 1   
    98   95   96 2   
    99   95  112 1   
   100   97   98 1   
   101   97   99 1   
   102   97  103 1   
   103   98  100 1   
   104   98  104 1   
   105   98  105 1   
   106   99  106 1   
   107   99  107 1   
   108   99  108 1   
   109  100  109 1   
   110  100  110 1   
   111  100  111 1   
   112  112  113 1   
   113  112  119 1   
   114  113  114 1   
   115  113  116 1   
   116  113  120 1   
   117  114  115 2   
   118  114  126 1   
   119  116  117 1   
   120  116  118 1   
   121  116  121 1   
   122  117  123 1   
   123  117  124 1   
   124  117  125 1   
   125  118  122 1   
   126  126  127 1   
   127  126  133 1   
   128  127  128 1   
   129  127  130 1   
   130  127  134 1   
   131  128  129 2   
   132  128  140 1   
   133  130  131 1   
   134  130  132 1   
   135  130  135 1   
   136  131  137 1   
   137  131  138 1   
   138  131  139 1   
   139  132  136 1   
   140  140  141 1   
   141  140  149 1   
   142  141  142 1   
   143  141  144 1   
   144  141  150 1   
   145  142  143 2   
   146  142  162 1   
   147  144  145 1   
   148  144  151 1   
   149  144  152 1   
   150  145  146 1   
   151  145  153 1   
   152  145  154 1   
   153  146  147 1   
   154  146  155 1   
   155  146  156 1   
   156  147  148 1   
   157  147  157 1   
   158  147  158 1   
   159  148  159 1   
   160  148  160 1   
   161  148  161 1   
   162  162  163 1   
   163  162  171 1   
   164  163  164 1   
   165  163  166 1   
   166  163  172 1   
   167  164  165 2   
   168  164  177 1   
   169  166  167 1   
   170  166  173 1   
   171  166  174 1   
   172  167  168 1   
   173  167  175 1   
   174  167  176 1   
   175  168  169 1   
   176  168  170 1   
   177  177  178 1   
   178  177  182 1   
   179  178  179 1   
   180  178  180 1   
   181  178  181 1   
   182  184  185 1   
   183  184  186 1   
@<TRIPOS>SUBSTRUCTURE
     1 MOL         1 TEMP              0 ****  ****    0 ROOT
