@<TRIPOS>MOLECULE
MOL
  181   177     1     0     0
SMALL
resp


@<TRIPOS>ATOM
      1 C1          2.5580   -2.3580    4.7140 c3        1 MOL     -0.362210
      2 C2          3.1290   -1.7070    3.4040 c         1 MOL      0.559266
      3 O1          2.4780   -1.7480    2.3350 o         1 MOL     -0.518611
      4 H1          1.6120   -1.8820    4.9720 hc        1 MOL      0.098526
      5 H2          2.3950   -3.4230    4.5500 hc        1 MOL      0.098526
      6 H3          3.2680   -2.2200    5.5290 hc        1 MOL      0.098526
      7 N1          4.3910   -1.2740    3.4870 n         1 MOL     -0.488907
      8 C3          5.1990   -0.5970    2.4980 c3        1 MOL     -0.014040
      9 C4          5.8030   -1.5410    1.4300 c         1 MOL      0.633661
     10 O2          6.4110   -1.0300    0.5250 o         1 MOL     -0.501230
     11 C5          6.1950    0.2730    3.2020 c3        1 MOL     -0.041851
     12 C6          6.7580    1.3400    2.3020 c         1 MOL      0.740638
     13 O3          8.0140    1.4970    2.4000 o         1 MOL     -0.719970
     14 O4          5.9880    2.2080    1.8470 o         1 MOL     -0.719970
     15 H4          4.8530   -1.5290    4.3470 hn        1 MOL      0.304669
     16 H5          4.5060    0.0420    1.9560 h1        1 MOL      0.056895
     17 H6          6.9580   -0.4230    3.5390 hc        1 MOL     -0.026946
     18 H7          5.7290    0.7880    4.0470 hc        1 MOL     -0.026946
     19 N2          5.5520   -2.8390    1.5780 n         1 MOL     -0.522560
     20 C7          6.0880   -3.7650    0.5110 c3        1 MOL      0.322818
     21 C8          5.8580   -3.3140   -0.9590 c         1 MOL      0.440420
     22 O5          6.8120   -3.4440   -1.7800 o         1 MOL     -0.487595
     23 C9          7.5230   -4.1630    0.7820 c3        1 MOL     -0.366102
     24 H8          4.9310   -3.2530    2.2530 hn        1 MOL      0.249866
     25 H9          5.4810   -4.6640    0.6350 h1        1 MOL     -0.021940
     26 H10         8.0080   -4.8600    0.1000 hc        1 MOL      0.092381
     27 H11         8.1580   -3.2810    0.6900 hc        1 MOL      0.092381
     28 H12         7.6350   -4.7360    1.7110 hc        1 MOL      0.092381
     29 N3          4.6210   -2.8950   -1.1790 n         1 MOL     -0.676905
     30 C10         4.0850   -2.4790   -2.4220 c3        1 MOL      0.169163
     31 C11         4.7840   -1.2270   -3.0740 c         1 MOL      0.477372
     32 O6          4.8600   -1.0840   -4.3250 o         1 MOL     -0.531306
     33 C12         3.9260   -3.6720   -3.4390 c3        1 MOL     -0.491513
     34 C13         3.1100   -4.7760   -2.7010 c         1 MOL      0.951380
     35 O7          1.9840   -4.5490   -2.2560 o         1 MOL     -0.757477
     36 O8          3.4500   -6.0140   -2.8630 o         1 MOL     -0.757477
     37 H13         4.0820   -2.7870   -0.3260 hn        1 MOL      0.351259
     38 H14         3.0670   -2.1480   -2.2080 h1        1 MOL      0.025915
     39 H15         4.8910   -3.9890   -3.8360 hc        1 MOL      0.133503
     40 H16         3.3700   -3.2700   -4.2950 hc        1 MOL      0.133503
     41 N4          5.2990   -0.3020   -2.1930 n         1 MOL     -0.092486
     42 C14         5.9690    0.9800   -2.5380 c3        1 MOL     -0.314017
     43 C15         4.9990    2.0750   -3.0260 c         1 MOL      0.618955
     44 O9          5.3430    3.1080   -3.6640 o         1 MOL     -0.556963
     45 H17         5.3010   -0.6210   -1.2360 hn        1 MOL      0.180225
     46 H18         6.7300    0.7980   -3.2960 h1        1 MOL      0.150350
     47 H19         6.4220    1.1990   -1.5730 h1        1 MOL      0.150350
     48 N5          3.6690    1.9420   -2.7140 n         1 MOL     -0.498636
     49 C16         2.5900    2.8580   -3.1160 c3        1 MOL      0.361486
     50 C17         2.5250    4.1120   -2.2420 c         1 MOL      0.395275
     51 O10         3.1460    4.1330   -1.1690 o         1 MOL     -0.455860
     52 C18         1.2870    2.1440   -3.2220 c3        1 MOL     -0.459568
     53 C19         0.1240    2.8640   -3.8110 c         1 MOL      0.779220
     54 N6         -0.9160    3.2140   -3.0900 n         1 MOL     -0.822321
     55 O11         0.0730    3.0070   -5.0160 o         1 MOL     -0.620211
     56 H20         3.4600    1.1910   -2.0760 hn        1 MOL      0.215361
     57 H21         2.8620    3.2870   -4.0810 h1        1 MOL     -0.009452
     58 H22         0.9260    1.7710   -2.2590 hc        1 MOL      0.137712
     59 H23         1.4070    1.2430   -3.8230 hc        1 MOL      0.137712
     60 H24        -0.7730    3.0980   -2.0900 hn        1 MOL      0.365131
     61 H25        -1.7330    3.6930   -3.4350 hn        1 MOL      0.365131
     62 N7          1.8940    5.1710   -2.7510 n         1 MOL     -0.307717
     63 C20         1.8470    6.4480   -2.0360 c3        1 MOL     -0.131825
     64 C21         0.6310    6.5500   -1.1150 c         1 MOL      0.606342
     65 O12        -0.4920    6.0710   -1.4780 o         1 MOL     -0.535917
     66 H26         1.3520    4.9830   -3.5830 hn        1 MOL      0.245762
     67 H27         1.8450    7.2580   -2.7610 h1        1 MOL      0.083456
     68 H28         2.7290    6.4750   -1.3900 h1        1 MOL      0.083456
     69 N8          0.9010    7.2090    0.0040 n         1 MOL     -0.486439
     70 C22        -0.2400    7.4140    0.8650 c3        1 MOL     -0.351450
     71 C23        -0.7430    6.1350    1.5560 c         1 MOL      0.518658
     72 O13        -1.6670    6.3070    2.2870 o         1 MOL     -0.556853
     73 C24         0.1430    8.4940    1.8700 c3        1 MOL      0.608193
     74 C25         1.1220    8.1430    2.9920 c3        1 MOL     -0.279631
     75 O14         0.6870    9.6090    1.1140 oh        1 MOL     -0.683954
     76 H29         1.7620    7.7020    0.1860 hn        1 MOL      0.329572
     77 H30        -1.0090    7.8820    0.2500 h1        1 MOL      0.149055
     78 H31        -0.7310    8.9520    2.3380 h1        1 MOL     -0.058818
     79 H32         0.1200    9.7340    0.3540 ho        1 MOL      0.388846
     80 H33         0.5350    7.7030    3.8000 hc        1 MOL      0.080918
     81 H34         1.6220    7.2690    2.5910 hc        1 MOL      0.080918
     82 H35         1.6790    8.9760    3.4300 hc        1 MOL      0.080918
     83 N9         -0.1670    4.9890    1.3240 n         1 MOL     -0.088162
     84 C26        -0.6310    3.7010    1.9690 c3        1 MOL     -0.091073
     85 C27        -0.7700    2.5410    0.9890 c         1 MOL      0.507815
     86 O15        -0.4850    2.6760   -0.2030 o         1 MOL     -0.589315
     87 C28         0.3650    3.3260    3.1760 c3        1 MOL      0.045666
     88 C29         1.6460    2.6670    2.6060 c3        1 MOL     -0.298210
     89 C30         0.7580    4.6240    3.8920 c3        1 MOL     -0.182799
     90 C31         2.7050    2.3730    3.7820 c3        1 MOL      0.016752
     91 H36         0.6000    4.9680    0.6630 hn        1 MOL      0.190345
     92 H37        -1.6290    3.8570    2.3830 h1        1 MOL      0.079345
     93 H38        -0.0870    2.5900    3.8420 hc        1 MOL      0.027320
     94 H39         2.1130    3.3050    1.8560 hc        1 MOL      0.149359
     95 H40         1.5980    1.6270    2.3050 hc        1 MOL      0.149359
     96 H41         1.5080    5.1270    3.2920 hc        1 MOL      0.042804
     97 H42        -0.1070    5.2430    4.1430 hc        1 MOL      0.042804
     98 H43         1.2700    4.4220    4.8340 hc        1 MOL      0.042804
     99 H44         3.4420    1.6820    3.3830 hc        1 MOL      0.021234
    100 H45         3.2970    3.2500    4.0490 hc        1 MOL      0.021234
    101 H46         2.3060    1.9540    4.7070 hc        1 MOL      0.021234
    102 N10        -1.1830    1.3460    1.4600 n         1 MOL     -0.480431
    103 C32        -1.1850    0.1140    0.7460 c3        1 MOL      0.090582
    104 C33        -2.5570   -0.1590    0.1450 c         1 MOL      0.514100
    105 O16        -3.1180   -1.2220    0.1960 o         1 MOL     -0.341862
    106 C34        -0.7320   -0.9920    1.6690 c3        1 MOL      0.067766
    107 C35        -0.5620   -2.3470    0.8930 c         1 MOL      0.730505
    108 O17        -0.4330   -3.4120    1.5660 o         1 MOL     -0.787393
    109 O18        -0.5700   -2.4320   -0.3500 o         1 MOL     -0.787393
    110 H47        -1.2880    1.2530    2.4600 hn        1 MOL      0.291728
    111 H48        -0.4280    0.1390   -0.0440 h1        1 MOL      0.070343
    112 H49        -1.3750   -1.0750    2.5510 hc        1 MOL     -0.026146
    113 H50         0.2290   -0.7170    2.1190 hc        1 MOL     -0.026146
    114 N11        -3.2350    0.9720   -0.2880 n         1 MOL     -0.758794
    115 C36        -4.5350    0.8680   -1.0260 c3        1 MOL      0.510979
    116 C37        -5.5430    0.2390   -0.0540 c         1 MOL      0.124953
    117 O19        -5.6860    0.5840    1.1270 o         1 MOL     -0.474957
    118 C38        -4.9360    2.2610   -1.6150 c3        1 MOL     -0.228136
    119 C39        -6.1390    2.2450   -2.4700 ca        1 MOL      0.071917
    120 C40        -6.0970    1.7740   -3.7550 ca        1 MOL     -0.176432
    121 C41        -7.4230    2.5070   -1.8920 ca        1 MOL     -0.176432
    122 C42        -7.2980    1.5920   -4.4950 ca        1 MOL     -0.105700
    123 C43        -8.5910    2.2950   -2.6080 ca        1 MOL     -0.105700
    124 C44        -8.5100    1.8080   -3.9270 ca        1 MOL     -0.084994
    125 H51        -2.7880    1.8540   -0.1220 hn        1 MOL      0.372555
    126 H52        -4.4680    0.2740   -1.9380 h1        1 MOL     -0.041645
    127 H53        -4.0970    2.5600   -2.2450 hc        1 MOL      0.094516
    128 H54        -4.9330    2.9800   -0.7900 hc        1 MOL      0.094516
    129 H55        -5.1460    1.5230   -4.1860 ha        1 MOL      0.134187
    130 H56        -7.4620    2.7990   -0.8560 ha        1 MOL      0.134187
    131 H57        -7.2200    1.2690   -5.5150 ha        1 MOL      0.104373
    132 H58        -9.5590    2.4540   -2.1500 ha        1 MOL      0.104373
    133 H59        -9.4340    1.6530   -4.4520 ha        1 MOL      0.088308
    134 N12        -6.2500   -0.8600   -0.4930 n         1 MOL      0.007658
    135 C45        -7.3340   -1.4880    0.3290 c3        1 MOL      0.042388
    136 C46        -6.8170   -2.2010    1.5650 c         1 MOL      0.218206
    137 O20        -7.6520   -2.4640    2.4660 o         1 MOL     -0.501622
    138 C47        -7.9840   -2.6030   -0.5560 c3        1 MOL     -0.111040
    139 C48        -7.4990   -2.2920   -1.9670 c3        1 MOL     -0.070952
    140 C49        -6.1860   -1.5160   -1.8310 c3        1 MOL      0.053771
    141 H60        -8.0810   -0.7270    0.5120 h1        1 MOL      0.076804
    142 H61        -7.6070   -3.6030   -0.3330 hc        1 MOL      0.063246
    143 H62        -9.0740   -2.5610   -0.4950 hc        1 MOL      0.063246
    144 H63        -7.3280   -3.2050   -2.5320 hc        1 MOL      0.022681
    145 H64        -8.1110   -1.6290   -2.5750 hc        1 MOL      0.022681
    146 H65        -5.2950   -2.1480   -1.8330 h1        1 MOL      0.026330
    147 H66        -6.1580   -0.7770   -2.6310 h1        1 MOL      0.026330
    148 N13        -5.4960   -2.5220    1.5980 n         1 MOL      0.047894
    149 C50        -4.9630   -3.3320    2.6780 c3        1 MOL     -0.196398
    150 C51        -4.6900   -2.3550    3.8890 c         1 MOL      0.431975
    151 O21        -4.9070   -2.7770    5.0010 o         1 MOL     -0.542709
    152 C52        -3.7000   -4.1140    2.2560 c3        1 MOL      0.030257
    153 C53        -4.0950   -5.0980    1.1430 c3        1 MOL     -0.271860
    154 C54        -2.7310   -5.5490    0.5030 c         1 MOL      0.709632
    155 O22        -2.5550   -5.1380   -0.6490 o         1 MOL     -0.738840
    156 O23        -1.8350   -6.1250    1.1470 o         1 MOL     -0.738840
    157 H67        -4.9000   -2.2180    0.8480 hn        1 MOL      0.113592
    158 H68        -5.7380   -4.0120    3.0460 h1        1 MOL      0.124215
    159 H69        -3.2750   -4.5860    3.1310 hc        1 MOL      0.053794
    160 H70        -2.9260   -3.4470    1.8630 hc        1 MOL      0.053794
    161 H71        -4.6230   -4.6350    0.3170 hc        1 MOL      0.055827
    162 H72        -4.7020   -5.9520    1.4600 hc        1 MOL      0.055827
    163 N14        -4.3780   -1.0730    3.6250 n         1 MOL     -0.167784
    164 C55        -4.3740    0.0610    4.6110 c3        1 MOL     -0.146306
    165 H73        -4.5630   -0.3270    5.6110 h1        1 MOL      0.073171
    166 H74        -3.4030    0.5560    4.5910 h1        1 MOL      0.073171
    167 H75        -5.1520    0.7760    4.3460 h1        1 MOL      0.073171
    168 H76        -4.3180   -0.8780    2.6290 hn        1 MOL      0.204869
    169 Ca1         0.2210   -4.9180   -0.5360 Ca        1 MOL      1.773080
    170 O24         2.3910   -4.0090    1.0030 oh        1 MOL     -0.812052
    171 H77         2.9570   -4.5680    1.5400 ho        1 MOL      0.393791
    172 H78         2.3820   -3.1680    1.4630 ho        1 MOL      0.393791
    173 O25         0.1180   -7.2600   -1.7440 oh        1 MOL     -0.812052
    174 H79         0.6810   -7.4650   -2.4810 ho        1 MOL      0.393791
    175 H80        -0.2930   -8.1020   -1.5220 ho        1 MOL      0.393791
    176 O26         2.3490   -6.6540    0.2080 oh        1 MOL     -0.812052
    177 H81         2.3890   -7.1640    1.0260 ho        1 MOL      0.393791
    178 H82         3.2040   -6.7930   -0.2070 ho        1 MOL      0.393791
    179 O27        -0.9670   -4.8910   -3.4240 oh        1 MOL     -0.812052
    180 H83        -0.6450   -4.9490   -4.3180 ho        1 MOL      0.393791
    181 H84        -1.6470   -4.2150   -3.4470 ho        1 MOL      0.393791
@<TRIPOS>BOND
     1    1    2 1   
     2    1    4 1   
     3    1    5 1   
     4    1    6 1   
     5    2    3 2   
     6    2    7 1   
     7    7    8 1   
     8    7   15 1   
     9    8    9 1   
    10    8   11 1   
    11    8   16 1   
    12    9   10 2   
    13    9   19 1   
    14   11   12 1   
    15   11   17 1   
    16   11   18 1   
    17   12   13 1   
    18   12   14 1   
    19   19   20 1   
    20   19   24 1   
    21   20   21 1   
    22   20   23 1   
    23   20   25 1   
    24   21   22 2   
    25   21   29 1   
    26   23   26 1   
    27   23   27 1   
    28   23   28 1   
    29   29   30 1   
    30   29   37 1   
    31   30   31 1   
    32   30   33 1   
    33   30   38 1   
    34   31   32 2   
    35   31   41 1   
    36   33   34 1   
    37   33   39 1   
    38   33   40 1   
    39   34   35 1   
    40   34   36 1   
    41   41   42 1   
    42   41   45 1   
    43   42   43 1   
    44   42   46 1   
    45   42   47 1   
    46   43   44 2   
    47   43   48 1   
    48   48   49 1   
    49   48   56 1   
    50   49   50 1   
    51   49   52 1   
    52   49   57 1   
    53   50   51 2   
    54   50   62 1   
    55   52   53 1   
    56   52   58 1   
    57   52   59 1   
    58   53   54 1   
    59   53   55 2   
    60   54   60 1   
    61   54   61 1   
    62   62   63 1   
    63   62   66 1   
    64   63   64 1   
    65   63   67 1   
    66   63   68 1   
    67   64   65 2   
    68   64   69 1   
    69   69   70 1   
    70   69   76 1   
    71   70   71 1   
    72   70   73 1   
    73   70   77 1   
    74   71   72 2   
    75   71   83 1   
    76   73   74 1   
    77   73   75 1   
    78   73   78 1   
    79   74   80 1   
    80   74   81 1   
    81   74   82 1   
    82   75   79 1   
    83   83   84 1   
    84   83   91 1   
    85   84   85 1   
    86   84   87 1   
    87   84   92 1   
    88   85   86 2   
    89   85  102 1   
    90   87   88 1   
    91   87   89 1   
    92   87   93 1   
    93   88   90 1   
    94   88   94 1   
    95   88   95 1   
    96   89   96 1   
    97   89   97 1   
    98   89   98 1   
    99   90   99 1   
   100   90  100 1   
   101   90  101 1   
   102  102  103 1   
   103  102  110 1   
   104  103  104 1   
   105  103  106 1   
   106  103  111 1   
   107  104  105 2   
   108  104  114 1   
   109  106  107 1   
   110  106  112 1   
   111  106  113 1   
   112  107  108 1   
   113  107  109 1   
   114  114  115 1   
   115  114  125 1   
   116  115  116 1   
   117  115  118 1   
   118  115  126 1   
   119  116  117 2   
   120  116  134 1   
   121  118  119 1   
   122  118  127 1   
   123  118  128 1   
   124  119  120 ar  
   125  119  121 ar  
   126  120  122 ar  
   127  120  129 1   
   128  121  123 ar  
   129  121  130 1   
   130  122  124 ar  
   131  122  131 1   
   132  123  124 ar  
   133  123  132 1   
   134  124  133 1   
   135  134  135 1   
   136  134  140 1   
   137  135  136 1   
   138  135  138 1   
   139  135  141 1   
   140  136  137 2   
   141  136  148 1   
   142  138  139 1   
   143  138  142 1   
   144  138  143 1   
   145  139  140 1   
   146  139  144 1   
   147  139  145 1   
   148  140  146 1   
   149  140  147 1   
   150  148  149 1   
   151  148  157 1   
   152  149  150 1   
   153  149  152 1   
   154  149  158 1   
   155  150  151 2   
   156  150  163 1   
   157  152  153 1   
   158  152  159 1   
   159  152  160 1   
   160  153  154 1   
   161  153  161 1   
   162  153  162 1   
   163  154  155 1   
   164  154  156 1   
   165  163  164 1   
   166  163  168 1   
   167  164  165 1   
   168  164  166 1   
   169  164  167 1   
   170  170  171 1   
   171  170  172 1   
   172  173  174 1   
   173  173  175 1   
   174  176  177 1   
   175  176  178 1   
   176  179  180 1   
   177  179  181 1   
@<TRIPOS>SUBSTRUCTURE
     1 MOL         1 TEMP              0 ****  ****    0 ROOT
