@<TRIPOS>MOLECULE
MOL
  195   189     1     0     0
SMALL
resp


@<TRIPOS>ATOM
      1 C1          1.6900    3.5000    3.2710 c3        1 MOL     -0.269306
      2 C2          1.0270    3.7700    1.9360 c         1 MOL      0.666001
      3 O1          0.4970    2.8340    1.3830 o         1 MOL     -0.483085
      4 H1          2.6260    2.9640    3.1090 hc        1 MOL      0.045753
      5 H2          1.8960    4.4450    3.7720 hc        1 MOL      0.045753
      6 H3          1.0280    2.8960    3.8910 hc        1 MOL      0.045753
      7 N1          0.9390    5.0630    1.5600 n         1 MOL     -0.451738
      8 C3          0.2550    5.4560    0.2680 c3        1 MOL     -0.159254
      9 C4         -1.2850    5.1980    0.2190 c         1 MOL      0.787698
     10 O2         -1.8160    4.8430   -0.8090 o         1 MOL     -0.558390
     11 C5          1.0600    4.9780   -1.0030 c3        1 MOL     -0.376993
     12 C6          2.5340    5.1580   -0.9150 c         1 MOL      0.877348
     13 O3          3.3300    4.2060   -0.8770 o         1 MOL     -0.778203
     14 O4          3.0140    6.3130   -0.8940 o         1 MOL     -0.778203
     15 H4          1.4860    5.6860    2.1360 hn        1 MOL      0.243942
     16 H5          0.2760    6.5430    0.3260 h1        1 MOL      0.123510
     17 H6          0.6240    5.5190   -1.8400 hc        1 MOL      0.138982
     18 H7          0.9550    3.9290   -1.2980 hc        1 MOL      0.138982
     19 N2         -1.9630    5.3150    1.3560 n         1 MOL     -0.620119
     20 C7         -3.4270    5.2590    1.4390 c3        1 MOL      0.028839
     21 C8         -4.1460    6.4270    0.7270 c         1 MOL      0.481067
     22 O5         -3.5720    7.4430    0.5200 o         1 MOL     -0.537570
     23 C9         -3.9300    4.8450    2.8190 c3        1 MOL      0.146528
     24 C10        -3.9210    6.0280    3.8010 c3        1 MOL      0.079077
     25 C11        -3.2950    3.5580    3.3920 c3        1 MOL     -0.100124
     26 C12        -5.1670    6.9290    3.7090 c3        1 MOL     -0.048893
     27 H8         -1.5220    5.6150    2.2160 hn        1 MOL      0.310420
     28 H9         -3.6520    4.5010    0.6840 h1        1 MOL      0.123863
     29 H10        -4.9550    4.4860    2.8220 hc        1 MOL      0.023174
     30 H11        -3.0190    6.6330    3.6590 hc        1 MOL     -0.055816
     31 H12        -3.7440    5.5980    4.7840 hc        1 MOL     -0.055816
     32 H13        -3.3500    2.7960    2.6120 hc        1 MOL      0.016884
     33 H14        -2.2810    3.7400    3.7310 hc        1 MOL      0.016884
     34 H15        -3.8450    3.1790    4.2530 hc        1 MOL      0.016884
     35 H16        -5.8920    6.6640    2.9370 hc        1 MOL      0.015463
     36 H17        -5.6860    6.9760    4.6600 hc        1 MOL      0.015463
     37 H18        -4.8380    7.9570    3.5900 hc        1 MOL      0.015463
     38 N3         -5.4610    6.3270    0.2910 n         1 MOL     -0.563126
     39 C13        -6.4790    5.2100    0.3640 c3        1 MOL      0.274945
     40 C14        -5.9580    3.8200   -0.1960 c         1 MOL      0.504167
     41 O6         -6.0640    2.8240    0.5390 o         1 MOL     -0.497532
     42 C15        -7.7860    5.7480   -0.3060 c3        1 MOL     -0.364536
     43 C16        -8.9080    4.6260   -0.1980 c         1 MOL      0.777867
     44 O7         -9.5000    4.1340   -1.1250 o         1 MOL     -0.695355
     45 O8         -9.1760    4.2600    0.9720 o         1 MOL     -0.695355
     46 H19        -5.9150    7.1840    0.0150 hn        1 MOL      0.295320
     47 H20        -6.7650    5.0240    1.3990 h1        1 MOL     -0.045828
     48 H21        -7.5260    5.7750   -1.3610 hc        1 MOL      0.050765
     49 H22        -8.1280    6.6670    0.1580 hc        1 MOL      0.050765
     50 N4         -5.4690    3.8700   -1.4240 n         1 MOL     -0.447272
     51 C17        -4.7360    2.7730   -2.0120 c3        1 MOL     -0.043153
     52 C18        -5.4870    1.5980   -2.4770 c         1 MOL      0.343302
     53 O9         -6.6800    1.4210   -2.1760 o         1 MOL     -0.418519
     54 H23        -5.5200    4.6980   -1.9980 hn        1 MOL      0.305497
     55 H24        -3.9640    2.4600   -1.3030 h1        1 MOL      0.101841
     56 H25        -4.1260    3.1560   -2.8300 h1        1 MOL      0.101841
     57 N5         -4.8440    0.5970   -3.0980 n         1 MOL     -0.263586
     58 C19        -5.4220   -0.6520   -3.4970 c3        1 MOL     -0.121719
     59 C20        -6.1120   -1.4340   -2.3690 c         1 MOL      0.412574
     60 O10        -7.0190   -2.2230   -2.6830 o         1 MOL     -0.529744
     61 C21        -4.4670   -1.5690   -4.2230 c3        1 MOL      0.023319
     62 C22        -3.2130   -1.8550   -3.3750 c         1 MOL      0.681730
     63 O11        -3.2150   -2.8220   -2.5800 o         1 MOL     -0.684267
     64 O12        -2.2680   -1.0020   -3.4160 o         1 MOL     -0.684267
     65 H26        -3.8690    0.7060   -3.3670 hn        1 MOL      0.203087
     66 H27        -6.1880   -0.3120   -4.2030 h1        1 MOL      0.107486
     67 H28        -4.0380   -1.1370   -5.1300 hc        1 MOL     -0.039843
     68 H29        -4.8660   -2.5670   -4.4160 hc        1 MOL     -0.039843
     69 N6         -5.8050   -1.2830   -1.0640 n         1 MOL     -0.121696
     70 C23        -6.6210   -1.8620    0.0000 c3        1 MOL     -0.078172
     71 C24        -6.3850   -3.3500    0.2230 c         1 MOL      0.320101
     72 O13        -7.1110   -4.0140    0.9750 o         1 MOL     -0.543593
     73 H30        -5.3490   -0.4050   -0.8760 hn        1 MOL      0.201249
     74 H31        -7.6640   -1.6740   -0.2790 h1        1 MOL      0.091508
     75 H32        -6.4400   -1.3500    0.9390 h1        1 MOL      0.091508
     76 N7         -5.4310   -3.8870   -0.5070 n         1 MOL      0.170121
     77 C25        -4.8440   -5.2560   -0.6230 c3        1 MOL      0.013233
     78 C26        -4.3490   -5.8490    0.7280 c         1 MOL      0.551113
     79 O14        -4.3640   -7.0880    0.9530 o         1 MOL     -0.513377
     80 C27        -5.5750   -6.1750   -1.6350 c3        1 MOL     -0.216562
     81 C28        -5.6220   -5.5370   -3.0650 c3        1 MOL      0.006813
     82 C29        -6.0390   -6.4450   -4.1720 c         1 MOL      0.660844
     83 N8         -6.3980   -5.9490   -5.3120 n         1 MOL     -0.823440
     84 O15        -6.2060   -7.6410   -4.0300 o         1 MOL     -0.585235
     85 H33        -4.8780   -3.1790   -0.9610 hn        1 MOL     -0.034048
     86 H34        -3.8850   -5.0100   -1.0940 h1        1 MOL      0.119217
     87 H35        -6.6370   -6.3380   -1.4330 hc        1 MOL      0.064659
     88 H36        -5.0740   -7.1300   -1.7790 hc        1 MOL      0.064659
     89 H37        -4.6850   -5.0280   -3.3190 hc        1 MOL      0.019945
     90 H38        -6.3760   -4.7550   -3.0940 hc        1 MOL      0.019945
     91 H39        -6.3400   -4.9490   -5.4470 hn        1 MOL      0.354668
     92 H40        -6.8180   -6.4530   -6.0820 hn        1 MOL      0.354668
     93 N9         -3.9540   -4.8840    1.6420 n         1 MOL     -0.569260
     94 C30        -3.7300   -5.1560    3.1010 c3        1 MOL      0.079189
     95 C31        -2.3370   -4.6920    3.5090 c         1 MOL      0.382944
     96 O16        -1.7060   -5.1910    4.4460 o         1 MOL     -0.565648
     97 C32        -4.8450   -4.7590    4.0690 c3        1 MOL      0.091627
     98 C33        -5.2260   -3.2900    3.8330 c3        1 MOL     -0.308995
     99 C34        -6.1530   -5.4830    4.1000 c3        1 MOL     -0.308995
    100 H41        -4.0290   -3.9340    1.3050 hn        1 MOL      0.259084
    101 H42        -3.7310   -6.2470    3.1630 h1        1 MOL      0.108020
    102 H43        -4.5640   -4.8910    5.1110 hc        1 MOL      0.019964
    103 H44        -4.3440   -2.6740    3.6950 hc        1 MOL      0.081183
    104 H45        -5.8840   -3.2290    2.9680 hc        1 MOL      0.081183
    105 H46        -5.7790   -2.8410    4.6550 hc        1 MOL      0.081183
    106 H47        -5.9710   -6.4800    4.5170 hc        1 MOL      0.081183
    107 H48        -6.7920   -4.9830    4.8290 hc        1 MOL      0.081183
    108 H49        -6.5350   -5.4850    3.0820 hc        1 MOL      0.081183
    109 N10        -1.8240   -3.7250    2.7930 n         1 MOL     -0.155052
    110 C35        -0.4970   -3.2670    2.6990 c3        1 MOL      0.079285
    111 C36         0.1590   -3.6390    1.2910 c         1 MOL      0.632986
    112 O17        -0.4660   -4.2040    0.4190 o         1 MOL     -0.557958
    113 C37        -0.4960   -1.7240    2.9400 c3        1 MOL     -0.240809
    114 C38         0.7980   -1.1220    3.4650 c         1 MOL      0.622304
    115 N11         0.8700   -0.6990    4.6720 n         1 MOL     -0.714256
    116 O18         1.7340   -1.1300    2.7250 o         1 MOL     -0.513551
    117 H50        -2.3630   -3.3880    2.0130 hn        1 MOL      0.203052
    118 H51         0.1430   -3.6840    3.4730 h1        1 MOL      0.064140
    119 H52        -1.2890   -1.4120    3.6230 hc        1 MOL      0.055418
    120 H53        -0.9190   -1.2260    2.0650 hc        1 MOL      0.055418
    121 H54         0.0340   -0.6180    5.2350 hn        1 MOL      0.341366
    122 H55         1.6960   -0.1700    4.9370 hn        1 MOL      0.341366
    123 N12         1.4730   -3.4870    1.1640 n         1 MOL     -0.576542
    124 C39         2.2850   -3.8750    0.0470 c3        1 MOL      0.011034
    125 C40         3.7800   -3.7990    0.4130 c         1 MOL      0.752760
    126 O19         4.1680   -3.0770    1.3030 o         1 MOL     -0.599283
    127 C41         1.9340   -3.0580   -1.1890 c3        1 MOL      0.128589
    128 C42         2.6150   -1.6930   -1.3290 ca        1 MOL      0.001455
    129 C43         2.0860   -0.6070   -0.6500 ca        1 MOL     -0.110241
    130 C44         3.7410   -1.5950   -2.1420 ca        1 MOL     -0.110241
    131 C45         2.6280    0.6330   -0.9110 ca        1 MOL     -0.159949
    132 C46         4.2320   -0.3360   -2.4650 ca        1 MOL     -0.159949
    133 C47         3.6690    0.8480   -1.8780 ca        1 MOL      0.086764
    134 O20         4.2270    2.0790   -2.2050 oh        1 MOL     -0.441163
    135 H56         1.8640   -2.8910    1.8800 hn        1 MOL      0.296708
    136 H57         1.9960   -4.8990   -0.1960 h1        1 MOL      0.089374
    137 H58         0.8770   -2.9520   -1.4180 hc        1 MOL     -0.002766
    138 H59         2.2430   -3.6150   -2.0730 hc        1 MOL     -0.002766
    139 H60         1.3360   -0.6940    0.1300 ha        1 MOL      0.099855
    140 H61         4.0080   -2.4970   -2.6840 ha        1 MOL      0.099855
    141 H62         2.1350    1.4570   -0.4100 ha        1 MOL      0.122679
    142 H63         4.8910   -0.2080   -3.3070 ha        1 MOL      0.122679
    143 H64         3.8470    2.7720   -1.6680 ho        1 MOL      0.450628
    144 N13         4.6390   -4.5380   -0.3430 n         1 MOL     -0.851544
    145 C48         6.1610   -4.4990   -0.2010 c3        1 MOL      0.575328
    146 C49         6.8640   -3.7710   -1.3290 c         1 MOL      0.476608
    147 O21         7.2540   -4.3840   -2.3150 o         1 MOL     -0.567137
    148 C50         6.6210   -5.9440   -0.0040 c3        1 MOL     -0.281066
    149 C51         8.1280   -6.0290    0.3560 c3        1 MOL     -0.143125
    150 C52         8.5560   -7.4720    0.6600 c         1 MOL      0.722839
    151 O22         8.1370   -8.0730    1.6830 o         1 MOL     -0.700256
    152 O23         9.4340   -7.9180   -0.0960 o         1 MOL     -0.700256
    153 H65         4.2310   -5.0760   -1.0900 hn        1 MOL      0.339876
    154 H66         6.3600   -3.9430    0.7110 h1        1 MOL     -0.020290
    155 H67         6.3700   -6.5270   -0.8930 hc        1 MOL      0.063336
    156 H68         6.0600   -6.3060    0.8610 hc        1 MOL      0.063336
    157 H69         8.2410   -5.4010    1.2410 hc        1 MOL      0.041997
    158 H70         8.7330   -5.5830   -0.4310 hc        1 MOL      0.041997
    159 N14         7.0630   -2.4730   -1.3980 n         1 MOL     -0.494221
    160 C53         6.8240   -1.3350   -0.4480 c3        1 MOL     -0.052618
    161 C54         7.4740   -1.5500    0.8760 c         1 MOL      0.522468
    162 O24         8.5280   -2.1830    0.9550 o         1 MOL     -0.562975
    163 C55         7.4890   -0.1050   -1.0860 c3        1 MOL      0.209970
    164 C56         7.0840    1.1920   -0.3830 c3        1 MOL     -0.234971
    165 C57         7.5620    2.4630   -1.0900 c         1 MOL      0.719336
    166 O25         7.0290    3.5130   -0.7730 o         1 MOL     -0.684494
    167 O26         8.3860    2.4310   -1.9810 o         1 MOL     -0.684494
    168 H71         7.3500   -2.1000   -2.2940 hn        1 MOL      0.293179
    169 H72         5.7630   -1.1600   -0.2770 h1        1 MOL      0.077229
    170 H73         7.0230   -0.1060   -2.0800 hc        1 MOL     -0.013561
    171 H74         8.5790   -0.2070   -1.1270 hc        1 MOL     -0.013561
    172 H75         7.4060    1.1610    0.6580 hc        1 MOL     -0.014153
    173 H76         6.0130    1.2380   -0.2100 hc        1 MOL     -0.014153
    174 N15         6.7800   -1.1750    2.0140 n         1 MOL     -0.125618
    175 C58         7.2040   -1.3020    3.3740 c3        1 MOL     -0.108186
    176 H77         8.0860   -1.9420    3.4200 h1        1 MOL      0.047050
    177 H78         7.4480   -0.3170    3.7730 h1        1 MOL      0.047050
    178 H79         6.4030   -1.7460    3.9640 h1        1 MOL      0.047050
    179 H80         5.9220   -0.7210    1.7470 hn        1 MOL      0.203896
    180 Ca1         5.6270    5.5990   -0.6820 Ca        1 MOL      1.605968
    181 O27         5.7240    8.0640   -1.6960 oh        1 MOL     -0.807192
    182 H81         5.1130    8.7950   -1.6820 ho        1 MOL      0.379700
    183 H82         6.4980    8.4060   -2.1560 ho        1 MOL      0.379700
    184 O28         5.2060    5.2070   -3.5500 oh        1 MOL     -0.807192
    185 H83         4.8480    5.8820   -4.1230 ho        1 MOL      0.379700
    186 H84         5.2980    4.4390   -4.1080 ho        1 MOL      0.379700
    187 O29         5.3370    3.6690    1.3190 oh        1 MOL     -0.807192
    188 H85         5.8260    2.8590    1.4530 ho        1 MOL      0.379700
    189 H86         5.1170    3.9670    2.2020 ho        1 MOL      0.379700
    190 O30         7.4360    6.7180    0.7640 oh        1 MOL     -0.807192
    191 H87         7.0230    6.7100    1.6300 ho        1 MOL      0.379700
    192 H88         7.7490    7.6110    0.6580 ho        1 MOL      0.379700
    193 O31         8.1920    5.3140   -2.5390 oh        1 MOL     -0.807192
    194 H89         7.7220    5.2420   -3.3600 ho        1 MOL      0.379700
    195 H90         8.2540    4.4180   -2.2120 ho        1 MOL      0.379700
@<TRIPOS>BOND
     1    1    2 1   
     2    1    4 1   
     3    1    5 1   
     4    1    6 1   
     5    2    3 2   
     6    2    7 1   
     7    7    8 1   
     8    7   15 1   
     9    8    9 1   
    10    8   11 1   
    11    8   16 1   
    12    9   10 2   
    13    9   19 1   
    14   11   12 1   
    15   11   17 1   
    16   11   18 1   
    17   12   13 1   
    18   12   14 1   
    19   19   20 1   
    20   19   27 1   
    21   20   21 1   
    22   20   23 1   
    23   20   28 1   
    24   21   22 2   
    25   21   38 1   
    26   23   24 1   
    27   23   25 1   
    28   23   29 1   
    29   24   26 1   
    30   24   30 1   
    31   24   31 1   
    32   25   32 1   
    33   25   33 1   
    34   25   34 1   
    35   26   35 1   
    36   26   36 1   
    37   26   37 1   
    38   38   39 1   
    39   38   46 1   
    40   39   40 1   
    41   39   42 1   
    42   39   47 1   
    43   40   41 2   
    44   40   50 1   
    45   42   43 1   
    46   42   48 1   
    47   42   49 1   
    48   43   44 1   
    49   43   45 1   
    50   50   51 1   
    51   50   54 1   
    52   51   52 1   
    53   51   55 1   
    54   51   56 1   
    55   52   53 2   
    56   52   57 1   
    57   57   58 1   
    58   57   65 1   
    59   58   59 1   
    60   58   61 1   
    61   58   66 1   
    62   59   60 2   
    63   59   69 1   
    64   61   62 1   
    65   61   67 1   
    66   61   68 1   
    67   62   63 1   
    68   62   64 1   
    69   69   70 1   
    70   69   73 1   
    71   70   71 1   
    72   70   74 1   
    73   70   75 1   
    74   71   72 2   
    75   71   76 1   
    76   76   77 1   
    77   76   85 1   
    78   77   78 1   
    79   77   80 1   
    80   77   86 1   
    81   78   79 2   
    82   78   93 1   
    83   80   81 1   
    84   80   87 1   
    85   80   88 1   
    86   81   82 1   
    87   81   89 1   
    88   81   90 1   
    89   82   83 1   
    90   82   84 2   
    91   83   91 1   
    92   83   92 1   
    93   93   94 1   
    94   93  100 1   
    95   94   95 1   
    96   94   97 1   
    97   94  101 1   
    98   95   96 2   
    99   95  109 1   
   100   97   98 1   
   101   97   99 1   
   102   97  102 1   
   103   98  103 1   
   104   98  104 1   
   105   98  105 1   
   106   99  106 1   
   107   99  107 1   
   108   99  108 1   
   109  109  110 1   
   110  109  117 1   
   111  110  111 1   
   112  110  113 1   
   113  110  118 1   
   114  111  112 2   
   115  111  123 1   
   116  113  114 1   
   117  113  119 1   
   118  113  120 1   
   119  114  115 1   
   120  114  116 2   
   121  115  121 1   
   122  115  122 1   
   123  123  124 1   
   124  123  135 1   
   125  124  125 1   
   126  124  127 1   
   127  124  136 1   
   128  125  126 2   
   129  125  144 1   
   130  127  128 1   
   131  127  137 1   
   132  127  138 1   
   133  128  129 ar  
   134  128  130 ar  
   135  129  131 ar  
   136  129  139 1   
   137  130  132 ar  
   138  130  140 1   
   139  131  133 ar  
   140  131  141 1   
   141  132  133 ar  
   142  132  142 1   
   143  133  134 1   
   144  134  143 1   
   145  144  145 1   
   146  144  153 1   
   147  145  146 1   
   148  145  148 1   
   149  145  154 1   
   150  146  147 2   
   151  146  159 1   
   152  148  149 1   
   153  148  155 1   
   154  148  156 1   
   155  149  150 1   
   156  149  157 1   
   157  149  158 1   
   158  150  151 1   
   159  150  152 1   
   160  159  160 1   
   161  159  168 1   
   162  160  161 1   
   163  160  163 1   
   164  160  169 1   
   165  161  162 2   
   166  161  174 1   
   167  163  164 1   
   168  163  170 1   
   169  163  171 1   
   170  164  165 1   
   171  164  172 1   
   172  164  173 1   
   173  165  166 1   
   174  165  167 1   
   175  174  175 1   
   176  174  179 1   
   177  175  176 1   
   178  175  177 1   
   179  175  178 1   
   180  181  182 1   
   181  181  183 1   
   182  184  185 1   
   183  184  186 1   
   184  187  188 1   
   185  187  189 1   
   186  190  191 1   
   187  190  192 1   
   188  193  194 1   
   189  193  195 1   
@<TRIPOS>SUBSTRUCTURE
     1 MOL         1 TEMP              0 ****  ****    0 ROOT
