@<TRIPOS>MOLECULE
MOL
  182   178     1     0     0
SMALL
resp


@<TRIPOS>ATOM
      1 C1          1.3080   -4.9470    5.6430 c3        1 MOL     -0.419026
      2 C2          1.5010   -4.3920    4.2020 c         1 MOL      0.837625
      3 O1          0.6100   -4.5040    3.3430 o         1 MOL     -0.667980
      4 H1          2.2720   -5.2580    6.0440 hc        1 MOL      0.117522
      5 H2          0.8840   -4.1700    6.2790 hc        1 MOL      0.117522
      6 H3          0.6330   -5.8030    5.6160 hc        1 MOL      0.117522
      7 N1          2.6420   -3.7750    3.8770 n         1 MOL     -0.667097
      8 C3          2.9100   -3.0990    2.5300 c3        1 MOL      0.020023
      9 C4          3.4050   -4.1520    1.4310 c         1 MOL      0.606419
     10 O2          4.3830   -4.9430    1.5560 o         1 MOL     -0.553968
     11 C5          3.9580   -2.0800    2.6960 c3        1 MOL      0.057567
     12 C6          4.0760   -1.2030    1.4550 c         1 MOL      0.445971
     13 O3          4.5650   -0.0680    1.5710 o         1 MOL     -0.628562
     14 O4          3.7440   -1.6060    0.3250 o         1 MOL     -0.628562
     15 H4          3.3120   -3.5870    4.6020 hn        1 MOL      0.343884
     16 H5          1.9440   -2.7250    2.2070 h1        1 MOL      0.012330
     17 H6          4.8780   -2.6160    2.8850 hc        1 MOL      0.024339
     18 H7          3.7200   -1.4850    3.5810 hc        1 MOL      0.024339
     19 N2          2.7860   -4.1770    0.2580 n         1 MOL     -0.140174
     20 C7          3.0240   -5.0780   -0.8930 c3        1 MOL     -0.256801
     21 C8          4.3760   -4.8470   -1.6020 c         1 MOL      0.653375
     22 O5          4.9570   -5.7720   -2.1880 o         1 MOL     -0.567825
     23 C9          1.8600   -5.0110   -1.9180 c3        1 MOL      0.174160
     24 C10         0.5220   -5.4690   -1.3760 c3        1 MOL     -0.024139
     25 C11        -0.4500   -5.6310   -2.5630 c3        1 MOL     -0.106249
     26 C12        -1.9300   -5.6420   -2.0500 c3        1 MOL      0.194029
     27 N3         -2.9150   -6.2230   -3.0530 n4        1 MOL     -0.432846
     28 H8          2.1570   -3.3870    0.1410 hn        1 MOL     -0.054564
     29 H9          3.0130   -6.1020   -0.5040 h1        1 MOL      0.126065
     30 H10         2.2280   -5.6470   -2.7200 hc        1 MOL     -0.012788
     31 H11         1.8990   -4.0040   -2.3230 hc        1 MOL     -0.012788
     32 H12         0.1030   -4.6730   -0.7530 hc        1 MOL      0.049858
     33 H13         0.6640   -6.3720   -0.7800 hc        1 MOL      0.049858
     34 H14        -0.2500   -6.6750   -2.8090 hc        1 MOL      0.034310
     35 H15        -0.2550   -4.9170   -3.3500 hc        1 MOL      0.034310
     36 H16        -2.1630   -4.5740   -1.9700 hx        1 MOL      0.053460
     37 H17        -2.0580   -6.1600   -1.0990 hx        1 MOL      0.053460
     38 H18        -2.9900   -5.6460   -3.8790 hn        1 MOL      0.325527
     39 H19        -2.7230   -7.1560   -3.3900 hn        1 MOL      0.325527
     40 H20        -3.8260   -6.3300   -2.6350 hn        1 MOL      0.325527
     41 N4          4.7960   -3.5760   -1.5080 n         1 MOL     -0.326773
     42 C13         5.9210   -3.1490   -2.3070 c3        1 MOL      0.094441
     43 C14         7.0630   -2.6330   -1.4780 c         1 MOL      0.497864
     44 O6          8.1920   -2.8510   -1.7630 o         1 MOL     -0.514227
     45 C15         5.4440   -2.0940   -3.2900 c3        1 MOL     -0.125505
     46 C16         4.5170   -1.0720   -2.6720 c         1 MOL      0.733573
     47 O7          5.0040   -0.1240   -2.0170 o         1 MOL     -0.739932
     48 O8          3.3110   -1.2490   -2.7360 o         1 MOL     -0.739932
     49 H21         4.1620   -2.9710   -1.0140 hn        1 MOL      0.089662
     50 H22         6.3470   -3.8870   -2.9820 h1        1 MOL      0.075044
     51 H23         5.0160   -2.5350   -4.1920 hc        1 MOL      0.035404
     52 H24         6.2950   -1.4960   -3.6080 hc        1 MOL      0.035404
     53 N5          6.7160   -1.8330   -0.3730 n         1 MOL     -0.320302
     54 C17         7.5640   -1.2600    0.6900 c3        1 MOL     -0.048739
     55 C18         7.7460    0.2090    0.6410 c         1 MOL      0.470524
     56 O9          8.6790    0.7190    1.2900 o         1 MOL     -0.571787
     57 H25         5.7460   -1.6010   -0.2680 hn        1 MOL      0.254557
     58 H26         8.5830   -1.6340    0.6200 h1        1 MOL      0.087813
     59 H27         7.3140   -1.5150    1.7260 h1        1 MOL      0.087813
     60 N6          6.9340    0.9030   -0.1340 n         1 MOL     -0.086282
     61 C19         7.0010    2.3310   -0.3860 c3        1 MOL     -0.002241
     62 C20         5.6260    2.9680   -0.6770 c         1 MOL      0.405885
     63 O10         4.5620    2.2530   -0.7340 o         1 MOL     -0.482085
     64 C21         8.0150    2.5670   -1.4750 c3        1 MOL     -0.344539
     65 C22         7.5410    2.8870   -2.8650 c         1 MOL      0.564892
     66 N7          6.7480    2.0250   -3.4210 n         1 MOL     -0.619940
     67 O11         7.8490    3.8950   -3.5240 o         1 MOL     -0.584266
     68 H28         6.3460    0.4840   -0.8360 hn        1 MOL      0.110688
     69 H29         7.3330    2.8170    0.5250 h1        1 MOL      0.097930
     70 H30         8.7120    1.7320   -1.5780 hc        1 MOL      0.133347
     71 H31         8.6440    3.3800   -1.1080 hc        1 MOL      0.133347
     72 H32         6.2300    1.3640   -2.8510 hn        1 MOL      0.326173
     73 H33         6.6440    2.1950   -4.4040 hn        1 MOL      0.326173
     74 N8          5.4940    4.2920   -0.7080 n         1 MOL     -0.272541
     75 C23         4.2730    5.1020   -0.8420 c3        1 MOL     -0.249758
     76 C24         3.2120    4.7800    0.3200 c         1 MOL      0.589513
     77 O12         3.6780    4.7380    1.4690 o         1 MOL     -0.493217
     78 H34         6.3670    4.7930   -0.5610 hn        1 MOL      0.300853
     79 H35         3.6920    4.8940   -1.7430 h1        1 MOL      0.124664
     80 H36         4.5650    6.1460   -0.8040 h1        1 MOL      0.124664
     81 N9          1.9240    4.8170    0.1130 n         1 MOL     -0.446949
     82 C25         0.8450    4.4240    1.1090 c3        1 MOL     -0.100042
     83 C26         0.9300    2.9310    1.5470 c         1 MOL      0.775511
     84 O13         1.8000    2.2680    1.0110 o         1 MOL     -0.615385
     85 C27        -0.4470    4.8220    0.4840 c3        1 MOL     -0.085012
     86 C28        -0.5980    6.3230    0.2460 ca        1 MOL      0.107317
     87 C29        -0.4060    7.2070    1.3350 ca        1 MOL     -0.206668
     88 C30        -0.8860    6.7890   -1.0520 ca        1 MOL     -0.206668
     89 C31        -0.3470    8.5600    1.0860 ca        1 MOL     -0.205042
     90 C32        -0.8610    8.1700   -1.3400 ca        1 MOL     -0.205042
     91 C33        -0.6100    9.0590   -0.2130 ca        1 MOL      0.277943
     92 O14        -0.6260   10.3920   -0.4310 oh        1 MOL     -0.443044
     93 H37         1.6320    4.9700   -0.8470 hn        1 MOL      0.264928
     94 H38         0.9000    5.0710    1.9770 h1        1 MOL      0.115434
     95 H39        -1.3120    4.3770    0.9940 hc        1 MOL      0.028232
     96 H40        -0.5250    4.3700   -0.5110 hc        1 MOL      0.028232
     97 H41        -0.1250    6.8500    2.3110 ha        1 MOL      0.153189
     98 H42        -1.0410    6.1510   -1.9080 ha        1 MOL      0.153189
     99 H43        -0.2490    9.2510    1.9160 ha        1 MOL      0.157543
    100 H44        -1.0010    8.5160   -2.3490 ha        1 MOL      0.157543
    101 H45        -0.6610   10.8120    0.4320 ho        1 MOL      0.356161
    102 N10         0.2020    2.4620    2.6200 n         1 MOL     -0.723410
    103 C34         0.0110    1.1020    3.1290 c3        1 MOL      0.218897
    104 C35        -0.1230    0.1610    1.8780 c         1 MOL      0.257546
    105 O15         0.8750   -0.2240    1.2430 o         1 MOL     -0.425246
    106 C36         1.1540    0.6700    4.0570 c3        1 MOL      0.274480
    107 C37         0.7180   -0.6370    4.8000 c3        1 MOL     -0.109441
    108 C38         1.5280    1.6980    5.1420 c3        1 MOL     -0.474598
    109 C39        -0.4210   -0.6110    5.8150 c3        1 MOL     -0.111717
    110 H46        -0.4670    3.1280    2.9690 hn        1 MOL      0.330685
    111 H47        -0.9620    1.0360    3.6210 h1        1 MOL      0.069636
    112 H48         2.1100    0.5000    3.5610 hc        1 MOL      0.074032
    113 H49         1.5510   -1.0030    5.3890 hc        1 MOL      0.042637
    114 H50         0.5730   -1.4000    4.0380 hc        1 MOL      0.042637
    115 H51         0.6610    2.1150    5.6570 hc        1 MOL      0.120729
    116 H52         2.2280    1.3260    5.8860 hc        1 MOL      0.120729
    117 H53         2.1510    2.4560    4.6730 hc        1 MOL      0.120729
    118 H54        -0.5450   -1.6070    6.2310 hc        1 MOL      0.029425
    119 H55        -0.2650    0.1360    6.5920 hc        1 MOL      0.029425
    120 H56        -1.3120   -0.2440    5.3130 hc        1 MOL      0.029425
    121 N11        -1.3760   -0.3640    1.6590 n         1 MOL     -0.407915
    122 C40        -1.5650   -1.3200    0.6470 c3        1 MOL     -0.057573
    123 C41        -2.9480   -1.5840    0.0380 c         1 MOL      0.561035
    124 O16        -3.2310   -2.4560   -0.7870 o         1 MOL     -0.575151
    125 C42        -1.0650   -2.7150    1.1430 c3        1 MOL      0.498241
    126 O17        -1.7640   -3.0950    2.2260 oh        1 MOL     -0.657984
    127 H57        -2.1400   -0.0280    2.2390 hn        1 MOL      0.302728
    128 H58        -0.9710   -0.9690   -0.2010 h1        1 MOL      0.115667
    129 H59        -0.0120   -2.6040    1.4150 h1        1 MOL     -0.072308
    130 H60        -1.1890   -3.3810    0.2840 h1        1 MOL     -0.072308
    131 H61        -1.3580   -3.8350    2.6940 ho        1 MOL      0.421838
    132 N12        -3.8810   -0.6910    0.4040 n         1 MOL     -0.416205
    133 C43        -5.3320   -0.7100    0.0320 c3        1 MOL     -0.068222
    134 C44        -5.6330   -0.0630   -1.3700 c         1 MOL      0.705084
    135 O18        -4.7760    0.6930   -1.8470 o         1 MOL     -0.579826
    136 C45        -6.0140    0.0310    1.1480 c3        1 MOL     -0.120928
    137 H62        -3.5980    0.0310    1.0480 hn        1 MOL      0.245611
    138 H63        -5.6540   -1.7500   -0.0280 h1        1 MOL      0.147555
    139 H64        -5.4680    0.9540    1.3540 hc        1 MOL      0.053596
    140 H65        -7.0560    0.3030    0.9680 hc        1 MOL      0.053596
    141 H66        -6.0160   -0.4320    2.1390 hc        1 MOL      0.053596
    142 N13        -6.7200   -0.4560   -2.0730 n         1 MOL     -0.726871
    143 C46        -7.9420   -1.1080   -1.6280 c3        1 MOL      0.494078
    144 C47        -9.1620   -0.3860   -2.2910 c         1 MOL      0.287098
    145 O19        -9.0450    0.2580   -3.3790 o         1 MOL     -0.487813
    146 C48        -7.8590   -2.5920   -1.8790 c3        1 MOL     -0.396809
    147 H67        -6.6370   -0.3180   -3.0730 hn        1 MOL      0.348938
    148 H68        -7.9270   -1.0630   -0.5350 h1        1 MOL     -0.056160
    149 H69        -8.6450   -3.0890   -1.3230 hc        1 MOL      0.098023
    150 H70        -8.2210   -2.6910   -2.8990 hc        1 MOL      0.098023
    151 H71        -6.8860   -2.9750   -1.5640 hc        1 MOL      0.098023
    152 N14       -10.3570   -0.4650   -1.6190 n         1 MOL     -0.207003
    153 C49       -10.5400   -0.9770   -0.2980 c3        1 MOL     -0.275245
    154 C50       -10.0960   -0.0650    0.8670 c         1 MOL      0.566840
    155 O20        -9.8390   -0.4570    1.9930 o         1 MOL     -0.578271
    156 C51       -11.9670   -1.4080   -0.0040 c3        1 MOL     -0.015931
    157 C52       -13.0530   -0.3810    0.2490 c3        1 MOL     -0.025998
    158 C53       -13.1600    0.6050   -0.9360 c         1 MOL      0.608558
    159 O21       -12.4980    1.6730   -0.8470 o         1 MOL     -0.672344
    160 O22       -13.7620    0.1300   -1.9360 o         1 MOL     -0.672344
    161 H72       -11.1720   -0.1660   -2.1220 hn        1 MOL      0.291362
    162 H73        -9.9130   -1.8580   -0.2030 h1        1 MOL      0.096677
    163 H74       -11.8550   -2.0760    0.8510 hc        1 MOL      0.029526
    164 H75       -12.3000   -1.9520   -0.8850 hc        1 MOL      0.029526
    165 H76       -12.8570    0.2770    1.1070 hc        1 MOL     -0.010569
    166 H77       -13.9580   -0.9670    0.3960 hc        1 MOL     -0.010569
    167 N15        -9.9920    1.2220    0.5860 n         1 MOL     -0.142408
    168 C54        -9.5550    2.2750    1.4820 c3        1 MOL     -0.187709
    169 H78       -10.3830    2.9590    1.6690 h1        1 MOL      0.079465
    170 H79        -9.2250    1.8380    2.4240 h1        1 MOL      0.079465
    171 H80        -8.7290    2.8210    1.0260 h1        1 MOL      0.079465
    172 H81       -10.2010    1.4970   -0.3650 hn        1 MOL      0.206119
    173 Ca1         2.5980    0.5530   -0.8480 Ca        1 MOL      1.792906
    174 O23         1.0360   -1.7530   -1.4890 oh        1 MOL     -0.868441
    175 H82         1.7520   -2.0200   -2.0700 ho        1 MOL      0.424976
    176 H83         0.2550   -1.8290   -2.0260 ho        1 MOL      0.424976
    177 O24         0.3810    1.5620   -1.5500 oh        1 MOL     -0.868441
    178 H84        -0.5560    1.3980   -1.3860 ho        1 MOL      0.424976
    179 H85         0.4060    2.4620   -1.8660 ho        1 MOL      0.424976
    180 O25         2.5920    1.5420   -3.2410 oh        1 MOL     -0.868441
    181 H86         2.0770    0.9990   -3.8410 ho        1 MOL      0.424976
    182 H87         2.8340    2.3120   -3.7640 ho        1 MOL      0.424976
@<TRIPOS>BOND
     1    1    2 1   
     2    1    4 1   
     3    1    5 1   
     4    1    6 1   
     5    2    3 2   
     6    2    7 1   
     7    7    8 1   
     8    7   15 1   
     9    8    9 1   
    10    8   11 1   
    11    8   16 1   
    12    9   10 2   
    13    9   19 1   
    14   11   12 1   
    15   11   17 1   
    16   11   18 1   
    17   12   13 1   
    18   12   14 1   
    19   19   20 1   
    20   19   28 1   
    21   20   21 1   
    22   20   23 1   
    23   20   29 1   
    24   21   22 2   
    25   21   41 1   
    26   23   24 1   
    27   23   30 1   
    28   23   31 1   
    29   24   25 1   
    30   24   32 1   
    31   24   33 1   
    32   25   26 1   
    33   25   34 1   
    34   25   35 1   
    35   26   27 1   
    36   26   36 1   
    37   26   37 1   
    38   27   38 1   
    39   27   39 1   
    40   27   40 1   
    41   41   42 1   
    42   41   49 1   
    43   42   43 1   
    44   42   45 1   
    45   42   50 1   
    46   43   44 2   
    47   43   53 1   
    48   45   46 1   
    49   45   51 1   
    50   45   52 1   
    51   46   47 1   
    52   46   48 1   
    53   53   54 1   
    54   53   57 1   
    55   54   55 1   
    56   54   58 1   
    57   54   59 1   
    58   55   56 2   
    59   55   60 1   
    60   60   61 1   
    61   60   68 1   
    62   61   62 1   
    63   61   64 1   
    64   61   69 1   
    65   62   63 2   
    66   62   74 1   
    67   64   65 1   
    68   64   70 1   
    69   64   71 1   
    70   65   66 1   
    71   65   67 2   
    72   66   72 1   
    73   66   73 1   
    74   74   75 1   
    75   74   78 1   
    76   75   76 1   
    77   75   79 1   
    78   75   80 1   
    79   76   77 2   
    80   76   81 1   
    81   81   82 1   
    82   81   93 1   
    83   82   83 1   
    84   82   85 1   
    85   82   94 1   
    86   83   84 2   
    87   83  102 1   
    88   85   86 1   
    89   85   95 1   
    90   85   96 1   
    91   86   87 ar  
    92   86   88 ar  
    93   87   89 ar  
    94   87   97 1   
    95   88   90 ar  
    96   88   98 1   
    97   89   91 ar  
    98   89   99 1   
    99   90   91 ar  
   100   90  100 1   
   101   91   92 1   
   102   92  101 1   
   103  102  103 1   
   104  102  110 1   
   105  103  104 1   
   106  103  106 1   
   107  103  111 1   
   108  104  105 2   
   109  104  121 1   
   110  106  107 1   
   111  106  108 1   
   112  106  112 1   
   113  107  109 1   
   114  107  113 1   
   115  107  114 1   
   116  108  115 1   
   117  108  116 1   
   118  108  117 1   
   119  109  118 1   
   120  109  119 1   
   121  109  120 1   
   122  121  122 1   
   123  121  127 1   
   124  122  123 1   
   125  122  125 1   
   126  122  128 1   
   127  123  124 2   
   128  123  132 1   
   129  125  126 1   
   130  125  129 1   
   131  125  130 1   
   132  126  131 1   
   133  132  133 1   
   134  132  137 1   
   135  133  134 1   
   136  133  136 1   
   137  133  138 1   
   138  134  135 2   
   139  134  142 1   
   140  136  139 1   
   141  136  140 1   
   142  136  141 1   
   143  142  143 1   
   144  142  147 1   
   145  143  144 1   
   146  143  146 1   
   147  143  148 1   
   148  144  145 2   
   149  144  152 1   
   150  146  149 1   
   151  146  150 1   
   152  146  151 1   
   153  152  153 1   
   154  152  161 1   
   155  153  154 1   
   156  153  156 1   
   157  153  162 1   
   158  154  155 2   
   159  154  167 1   
   160  156  157 1   
   161  156  163 1   
   162  156  164 1   
   163  157  158 1   
   164  157  165 1   
   165  157  166 1   
   166  158  159 1   
   167  158  160 1   
   168  167  168 1   
   169  167  172 1   
   170  168  169 1   
   171  168  170 1   
   172  168  171 1   
   173  174  175 1   
   174  174  176 1   
   175  177  178 1   
   176  177  179 1   
   177  180  181 1   
   178  180  182 1   
@<TRIPOS>SUBSTRUCTURE
     1 MOL         1 TEMP              0 ****  ****    0 ROOT
