@<TRIPOS>MOLECULE
MOL
  184   179     1     0     0
SMALL
resp


@<TRIPOS>ATOM
      1 C1          3.4350   -1.8290    4.0990 c3        1 MOL     -0.386352
      2 C2          4.5380   -1.1480    3.1980 c         1 MOL      0.669707
      3 O1          4.2890   -0.8720    2.0320 o         1 MOL     -0.557111
      4 H1          3.8840   -2.1530    5.0380 hc        1 MOL      0.106167
      5 H2          2.6410   -1.1120    4.3040 hc        1 MOL      0.106167
      6 H3          3.0210   -2.6920    3.5780 hc        1 MOL      0.106167
      7 N1          5.6510   -0.6740    3.7880 n         1 MOL     -0.534824
      8 C3          6.5770    0.1130    3.0310 c3        1 MOL      0.244385
      9 C4          7.1410   -0.6330    1.8170 c         1 MOL      0.464913
     10 O2          7.3200   -0.0750    0.6570 o         1 MOL     -0.588643
     11 C5          7.7170    0.6520    3.9790 c3        1 MOL     -0.315856
     12 C6          8.3890   -0.3520    4.9280 c         1 MOL      0.762695
     13 O3          9.0530    0.1200    5.8670 o         1 MOL     -0.718685
     14 O4          8.3240   -1.5680    4.7190 o         1 MOL     -0.718685
     15 H4          5.8970   -0.9680    4.7230 hn        1 MOL      0.295572
     16 H5          6.0710    0.9880    2.6390 h1        1 MOL      0.014835
     17 H6          7.2950    1.4630    4.5720 hc        1 MOL      0.068298
     18 H7          8.4720    1.1080    3.3400 hc        1 MOL      0.068298
     19 N2          7.3590   -1.9150    2.0630 n         1 MOL     -0.511632
     20 C7          7.8400   -2.8630    1.1010 c3        1 MOL      0.555591
     21 C8          6.7980   -3.2420   -0.0110 c         1 MOL      0.264385
     22 O5          7.2840   -3.8260   -1.0190 o         1 MOL     -0.534632
     23 C9          9.2640   -2.4860    0.6510 c3        1 MOL     -0.401410
     24 H8          7.5530   -2.1400    3.0340 hn        1 MOL      0.242271
     25 H9          7.9610   -3.8560    1.5250 h1        1 MOL     -0.029378
     26 H10         9.7300   -3.3230    0.1280 hc        1 MOL      0.095230
     27 H11         9.1490   -1.5900    0.0500 hc        1 MOL      0.095230
     28 H12         9.8810   -2.3090    1.5290 hc        1 MOL      0.095230
     29 N3          5.5300   -2.9740    0.1390 n         1 MOL     -0.319549
     30 C10         4.4870   -3.0490   -0.8670 c3        1 MOL      0.112183
     31 C11         4.6350   -2.0920   -2.0640 c         1 MOL      0.407038
     32 O6          4.0820   -2.2570   -3.1920 o         1 MOL     -0.486468
     33 C12         4.3030   -4.5000   -1.2520 c3        1 MOL     -0.035736
     34 C13         2.9470   -4.8140   -1.8310 c         1 MOL      0.658437
     35 O7          2.8570   -5.1850   -3.0270 o         1 MOL     -0.739888
     36 O8          1.9400   -4.4920   -1.1300 o         1 MOL     -0.739888
     37 H13         5.2860   -2.6640    1.0740 hn        1 MOL      0.183257
     38 H14         3.5940   -2.7360   -0.3220 h1        1 MOL      0.093213
     39 H15         4.4260   -5.2190   -0.4390 hc        1 MOL      0.024259
     40 H16         5.1150   -4.6570   -1.9600 hc        1 MOL      0.024259
     41 N4          5.4950   -1.0840   -1.8670 n         1 MOL     -0.028383
     42 C14         5.9830   -0.1320   -2.8790 c3        1 MOL     -0.231318
     43 C15         4.9970    0.9270   -3.4040 c         1 MOL      0.503675
     44 O9          5.1990    1.6620   -4.3690 o         1 MOL     -0.576629
     45 H17         6.0090   -1.0030   -1.0060 hn        1 MOL      0.144346
     46 H18         6.2090   -0.7770   -3.7270 h1        1 MOL      0.114114
     47 H19         6.9730    0.2560   -2.6310 h1        1 MOL      0.114114
     48 N5          3.8300    1.0670   -2.7670 n         1 MOL     -0.124316
     49 C16         2.7180    1.9660   -3.1030 c3        1 MOL     -0.156156
     50 C17         2.7650    3.4150   -2.4200 c         1 MOL      0.495489
     51 O10         3.1690    3.5070   -1.2670 o         1 MOL     -0.525201
     52 C18         1.4190    1.1790   -2.9580 c3        1 MOL      0.406787
     53 C19         0.2840    1.8230   -3.7190 c         1 MOL      0.365881
     54 N6         -0.3080    2.8980   -3.2590 n         1 MOL     -0.612777
     55 O11        -0.1440    1.2830   -4.7250 o         1 MOL     -0.552498
     56 H20         3.7780    0.4190   -1.9880 hn        1 MOL      0.108607
     57 H21         2.7540    2.2440   -4.1520 h1        1 MOL      0.025475
     58 H22         1.1560    1.1470   -1.9000 hc        1 MOL     -0.093917
     59 H23         1.5250    0.1540   -3.3030 hc        1 MOL     -0.093917
     60 H24         0.0120    3.4050   -2.4500 hn        1 MOL      0.304791
     61 H25        -1.0740    3.2710   -3.8100 hn        1 MOL      0.304791
     62 N7          2.4790    4.4390   -3.1860 n         1 MOL     -0.218399
     63 C20         2.4390    5.7990   -2.7530 c3        1 MOL     -0.322730
     64 C21         1.1330    6.2220   -2.0420 c         1 MOL      0.646020
     65 O12         0.0450    5.8560   -2.4680 o         1 MOL     -0.537342
     66 H26         2.1760    4.2420   -4.1300 hn        1 MOL      0.255664
     67 H27         2.5590    6.4080   -3.6490 h1        1 MOL      0.128702
     68 H28         3.3240    5.9590   -2.1390 h1        1 MOL      0.128702
     69 N8          1.2510    7.1090   -1.0810 n         1 MOL     -0.381130
     70 C22         0.1260    7.8590   -0.4600 c3        1 MOL     -0.324420
     71 C23        -0.9500    7.0780    0.2150 c         1 MOL      0.476297
     72 O13        -2.0100    7.6370    0.4320 o         1 MOL     -0.572531
     73 C24         0.5600    8.8750    0.6520 c3        1 MOL      0.381224
     74 C25         1.4840    8.2610    1.7280 c3        1 MOL     -0.230120
     75 O14         1.2980    9.8860   -0.0170 oh        1 MOL     -0.665710
     76 H29         2.2120    7.3540   -0.8960 hn        1 MOL      0.255535
     77 H30        -0.4210    8.3580   -1.2660 h1        1 MOL      0.189173
     78 H31        -0.2690    9.2630    1.2390 h1        1 MOL      0.090679
     79 H32         2.0730    9.5520   -0.4760 ho        1 MOL      0.410115
     80 H33         0.9370    7.6260    2.4290 hc        1 MOL      0.057696
     81 H34         2.2890    7.7000    1.2710 hc        1 MOL      0.057696
     82 H35         1.8790    9.0340    2.3830 hc        1 MOL      0.057696
     83 N9         -0.7080    5.8230    0.5060 n         1 MOL     -0.096932
     84 C26        -1.5670    4.7370    1.0100 c3        1 MOL      0.041704
     85 C27        -1.2940    3.4600    0.1630 c         1 MOL      0.216340
     86 O15        -0.3310    3.2970   -0.5540 o         1 MOL     -0.335250
     87 C28        -1.2890    4.4830    2.5500 c3        1 MOL      0.088584
     88 C29         0.1840    4.3220    2.9220 c3        1 MOL     -0.105059
     89 C30        -1.8930    5.6190    3.4000 c3        1 MOL     -0.375089
     90 C31         1.0740    3.2970    2.2650 c3        1 MOL     -0.303199
     91 H36         0.0760    5.3820    0.0550 hn        1 MOL      0.170425
     92 H37        -2.6000    5.0790    0.8630 h1        1 MOL      0.070291
     93 H38        -1.8300    3.5440    2.5950 hc        1 MOL      0.014067
     94 H39         0.3210    4.2140    4.0000 hc        1 MOL      0.047469
     95 H40         0.7770    5.2170    2.7220 hc        1 MOL      0.047469
     96 H41        -1.5080    6.5960    3.0820 hc        1 MOL      0.096504
     97 H42        -2.9590    5.7020    3.1740 hc        1 MOL      0.096504
     98 H43        -1.7200    5.4270    4.4530 hc        1 MOL      0.096504
     99 H44         1.9730    3.2340    2.8820 hc        1 MOL      0.111579
    100 H45         0.6890    2.2800    2.2600 hc        1 MOL      0.111579
    101 H46         1.1880    3.6170    1.2310 hc        1 MOL      0.111579
    102 N10        -2.1970    2.4770    0.2330 n         1 MOL     -0.271098
    103 C32        -2.1030    1.1770   -0.5160 c3        1 MOL     -0.049032
    104 C33        -3.4640    0.4730   -0.5010 c         1 MOL      0.511896
    105 O16        -3.5590   -0.7470   -0.7310 o         1 MOL     -0.501195
    106 C34        -1.0260    0.2580    0.0720 c3        1 MOL      0.080150
    107 C35        -0.4750   -0.8470   -0.8080 c         1 MOL      0.791657
    108 O17        -0.8140   -1.0520   -1.9760 o         1 MOL     -0.756508
    109 O18         0.3660   -1.6430   -0.3290 o         1 MOL     -0.756508
    110 H47        -3.0730    2.6780    0.6770 hn        1 MOL      0.204782
    111 H48        -1.7760    1.4610   -1.5140 h1        1 MOL      0.074979
    112 H49        -1.3490   -0.1840    1.0150 hc        1 MOL     -0.015109
    113 H50        -0.1780    0.8850    0.3640 hc        1 MOL     -0.015109
    114 N11        -4.5080    1.2730   -0.1710 n         1 MOL     -0.533891
    115 C36        -5.8460    0.6990   -0.1590 c3        1 MOL      0.374709
    116 C37        -6.0390   -0.3410    0.8940 c         1 MOL      0.351371
    117 O19        -5.6440   -0.1260    2.0450 o         1 MOL     -0.549755
    118 C38        -6.8980    1.8340   -0.0720 c3        1 MOL     -0.274434
    119 C39        -8.3980    1.3500   -0.0280 ca        1 MOL     -0.006874
    120 C40        -9.1900    1.3050   -1.2420 ca        1 MOL     -0.096813
    121 C41        -8.9850    0.9270    1.2230 ca        1 MOL     -0.096813
    122 C42       -10.4680    0.7810   -1.2030 ca        1 MOL     -0.153092
    123 C43       -10.2310    0.3060    1.2410 ca        1 MOL     -0.153092
    124 C44       -10.8590    0.1670    0.0090 ca        1 MOL     -0.057065
    125 H51        -4.3950    2.2500   -0.3670 hn        1 MOL      0.284168
    126 H52        -5.9830    0.2630   -1.1480 h1        1 MOL     -0.009942
    127 H53        -6.7010    2.4190   -0.9760 hc        1 MOL      0.101692
    128 H54        -6.7590    2.4930    0.7850 hc        1 MOL      0.101692
    129 H55        -8.8040    1.7040   -2.1680 ha        1 MOL      0.120246
    130 H56        -8.4630    0.9970    2.1700 ha        1 MOL      0.120246
    131 H57       -11.0970    0.6930   -2.0710 ha        1 MOL      0.128440
    132 H58       -10.7520   -0.1450    2.0780 ha        1 MOL      0.128440
    133 H59       -11.7980   -0.3660   -0.0010 ha        1 MOL      0.082045
    134 N12        -6.5450   -1.5460    0.5040 n         1 MOL      0.025366
    135 C45        -6.9910   -2.5730    1.4790 c3        1 MOL      0.078399
    136 C46        -5.8900   -3.2340    2.3130 c         1 MOL      0.133860
    137 O20        -6.1370   -3.8640    3.3480 o         1 MOL     -0.499894
    138 C47        -7.6280   -3.7110    0.5910 c3        1 MOL     -0.086456
    139 C48        -8.1440   -2.8870   -0.6070 c3        1 MOL      0.012867
    140 C49        -7.1110   -1.8480   -0.8280 c3        1 MOL      0.039721
    141 H60        -7.7320   -2.1310    2.1380 h1        1 MOL      0.077739
    142 H61        -6.8830   -4.3670    0.1440 hc        1 MOL      0.056434
    143 H62        -8.4910   -4.1740    1.0800 hc        1 MOL      0.056434
    144 H63        -8.3380   -3.5130   -1.4850 hc        1 MOL      0.001495
    145 H64        -9.0340   -2.3220   -0.3290 hc        1 MOL      0.001495
    146 H65        -6.3150   -2.1710   -1.4950 h1        1 MOL     -0.022639
    147 H66        -7.6160   -0.9190   -1.0580 h1        1 MOL     -0.022639
    148 N13        -4.5910   -3.0720    2.0470 n         1 MOL      0.113438
    149 C50        -3.4510   -3.4530    2.9000 c3        1 MOL     -0.164136
    150 C51        -3.0270   -2.4110    3.9540 c         1 MOL      0.438228
    151 O21        -2.3600   -2.7280    4.9330 o         1 MOL     -0.525395
    152 C52        -2.2700   -3.9650    2.1170 c3        1 MOL      0.119619
    153 C53        -2.6100   -5.2550    1.4710 c3        1 MOL     -0.106690
    154 C54        -1.4090   -5.8020    0.7190 c         1 MOL      0.699021
    155 O22        -0.9730   -6.9020    1.1290 o         1 MOL     -0.710544
    156 O23        -0.9960   -5.2870   -0.3490 o         1 MOL     -0.710544
    157 H67        -4.3870   -2.7940    1.0960 hn        1 MOL      0.057717
    158 H68        -3.7670   -4.2190    3.6080 h1        1 MOL      0.129595
    159 H69        -1.5230   -4.1740    2.8850 hc        1 MOL      0.012830
    160 H70        -1.7650   -3.2560    1.4530 hc        1 MOL      0.012830
    161 H71        -3.3940   -5.1040    0.7310 hc        1 MOL     -0.024639
    162 H72        -3.0090   -5.8620    2.2730 hc        1 MOL     -0.024639
    163 N14        -3.3940   -1.1150    3.7490 n         1 MOL     -0.205322
    164 C55        -3.3170   -0.1280    4.8610 c3        1 MOL     -0.250247
    165 H73        -4.2460    0.4410    4.9070 h1        1 MOL      0.102605
    166 H74        -3.1660   -0.6530    5.8040 h1        1 MOL      0.102605
    167 H75        -2.4840    0.5530    4.6870 h1        1 MOL      0.102605
    168 H76        -3.8600   -0.8200    2.9100 hn        1 MOL      0.213980
    169 Ca1        -0.3350   -3.6420   -2.2560 Ca        1 MOL      1.711163
    170 O24        -3.1730   -3.1970   -1.5320 oh        1 MOL     -0.806724
    171 H77        -3.3170   -2.3100   -1.2090 ho        1 MOL      0.390728
    172 H78        -3.9550   -3.3850   -2.0520 ho        1 MOL      0.390728
    173 O25         0.5860   -5.1020   -4.3240 oh        1 MOL     -0.806724
    174 H79         1.4670   -5.1750   -3.9570 ho        1 MOL      0.390728
    175 H80         0.5870   -5.7050   -5.0690 ho        1 MOL      0.390728
    176 O26        -1.6890   -2.4910   -4.4660 oh        1 MOL     -0.806724
    177 H81        -1.3710   -2.5200   -5.3700 ho        1 MOL      0.390728
    178 H82        -2.0230   -1.6010   -4.3500 ho        1 MOL      0.390728
    179 O27         1.5020   -2.3410   -3.8270 oh        1 MOL     -0.806724
    180 H83         2.4500   -2.3250   -3.6680 ho        1 MOL      0.390728
    181 H84         1.2890   -1.4430   -4.0950 ho        1 MOL      0.390728
    182 O28        -2.2690   -5.4200   -3.0380 oh        1 MOL     -0.806724
    183 H85        -2.2240   -6.3650   -2.9060 ho        1 MOL      0.390728
    184 H86        -3.1610   -5.1800   -2.7600 ho        1 MOL      0.390728
@<TRIPOS>BOND
     1    1    2 1   
     2    1    4 1   
     3    1    5 1   
     4    1    6 1   
     5    2    3 2   
     6    2    7 1   
     7    7    8 1   
     8    7   15 1   
     9    8    9 1   
    10    8   11 1   
    11    8   16 1   
    12    9   10 2   
    13    9   19 1   
    14   11   12 1   
    15   11   17 1   
    16   11   18 1   
    17   12   13 1   
    18   12   14 1   
    19   19   20 1   
    20   19   24 1   
    21   20   21 1   
    22   20   23 1   
    23   20   25 1   
    24   21   22 2   
    25   21   29 1   
    26   23   26 1   
    27   23   27 1   
    28   23   28 1   
    29   29   30 1   
    30   29   37 1   
    31   30   31 1   
    32   30   33 1   
    33   30   38 1   
    34   31   32 2   
    35   31   41 1   
    36   33   34 1   
    37   33   39 1   
    38   33   40 1   
    39   34   35 1   
    40   34   36 1   
    41   41   42 1   
    42   41   45 1   
    43   42   43 1   
    44   42   46 1   
    45   42   47 1   
    46   43   44 2   
    47   43   48 1   
    48   48   49 1   
    49   48   56 1   
    50   49   50 1   
    51   49   52 1   
    52   49   57 1   
    53   50   51 2   
    54   50   62 1   
    55   52   53 1   
    56   52   58 1   
    57   52   59 1   
    58   53   54 1   
    59   53   55 2   
    60   54   60 1   
    61   54   61 1   
    62   62   63 1   
    63   62   66 1   
    64   63   64 1   
    65   63   67 1   
    66   63   68 1   
    67   64   65 2   
    68   64   69 1   
    69   69   70 1   
    70   69   76 1   
    71   70   71 1   
    72   70   73 1   
    73   70   77 1   
    74   71   72 2   
    75   71   83 1   
    76   73   74 1   
    77   73   75 1   
    78   73   78 1   
    79   74   80 1   
    80   74   81 1   
    81   74   82 1   
    82   75   79 1   
    83   83   84 1   
    84   83   91 1   
    85   84   85 1   
    86   84   87 1   
    87   84   92 1   
    88   85   86 2   
    89   85  102 1   
    90   87   88 1   
    91   87   89 1   
    92   87   93 1   
    93   88   90 1   
    94   88   94 1   
    95   88   95 1   
    96   89   96 1   
    97   89   97 1   
    98   89   98 1   
    99   90   99 1   
   100   90  100 1   
   101   90  101 1   
   102  102  103 1   
   103  102  110 1   
   104  103  104 1   
   105  103  106 1   
   106  103  111 1   
   107  104  105 2   
   108  104  114 1   
   109  106  107 1   
   110  106  112 1   
   111  106  113 1   
   112  107  108 1   
   113  107  109 1   
   114  114  115 1   
   115  114  125 1   
   116  115  116 1   
   117  115  118 1   
   118  115  126 1   
   119  116  117 2   
   120  116  134 1   
   121  118  119 1   
   122  118  127 1   
   123  118  128 1   
   124  119  120 ar  
   125  119  121 ar  
   126  120  122 ar  
   127  120  129 1   
   128  121  123 ar  
   129  121  130 1   
   130  122  124 ar  
   131  122  131 1   
   132  123  124 ar  
   133  123  132 1   
   134  124  133 1   
   135  134  135 1   
   136  134  140 1   
   137  135  136 1   
   138  135  138 1   
   139  135  141 1   
   140  136  137 2   
   141  136  148 1   
   142  138  139 1   
   143  138  142 1   
   144  138  143 1   
   145  139  140 1   
   146  139  144 1   
   147  139  145 1   
   148  140  146 1   
   149  140  147 1   
   150  148  149 1   
   151  148  157 1   
   152  149  150 1   
   153  149  152 1   
   154  149  158 1   
   155  150  151 2   
   156  150  163 1   
   157  152  153 1   
   158  152  159 1   
   159  152  160 1   
   160  153  154 1   
   161  153  161 1   
   162  153  162 1   
   163  154  155 1   
   164  154  156 1   
   165  163  164 1   
   166  163  168 1   
   167  164  165 1   
   168  164  166 1   
   169  164  167 1   
   170  170  171 1   
   171  170  172 1   
   172  173  174 1   
   173  173  175 1   
   174  176  177 1   
   175  176  178 1   
   176  179  180 1   
   177  179  181 1   
   178  182  183 1   
   179  182  184 1   
@<TRIPOS>SUBSTRUCTURE
     1 MOL         1 TEMP              0 ****  ****    0 ROOT
