@<TRIPOS>MOLECULE
MOL
  181   177     1     0     0
SMALL
resp


@<TRIPOS>ATOM
      1 C1          3.8270   -1.4240    4.0150 c3        1 MOL     -0.616497
      2 C2          5.0200   -0.4060    3.7200 c         1 MOL      0.733368
      3 O1          4.9720    0.8310    3.8730 o         1 MOL     -0.625293
      4 H1          3.7330   -1.5700    5.0910 hc        1 MOL      0.166844
      5 H2          2.8960   -1.0170    3.6220 hc        1 MOL      0.166844
      6 H3          4.0370   -2.3810    3.5360 hc        1 MOL      0.166844
      7 N1          6.0850   -0.9860    3.1770 n         1 MOL     -0.495360
      8 C3          7.2710   -0.2820    2.7670 c3        1 MOL      0.038205
      9 C4          7.1630    0.2750    1.3410 c         1 MOL      0.643678
     10 O2          6.6050   -0.3610    0.4220 o         1 MOL     -0.552465
     11 C5          8.4870   -1.1570    2.8640 c3        1 MOL     -0.156350
     12 C6          8.4660   -2.5010    2.1050 c         1 MOL      0.623485
     13 O3          9.5770   -2.8370    1.5920 o         1 MOL     -0.661810
     14 O4          7.4260   -3.2680    2.2090 o         1 MOL     -0.661810
     15 H4          6.1580   -1.9760    3.0040 hn        1 MOL      0.282241
     16 H5          7.4630    0.4870    3.5140 h1        1 MOL      0.037994
     17 H6          8.6460   -1.3760    3.9220 hc        1 MOL      0.025982
     18 H7          9.3750   -0.5710    2.6270 hc        1 MOL      0.025982
     19 N2          7.6490    1.4760    1.2000 n         1 MOL     -0.499219
     20 C7          7.6470    2.0970   -0.1040 c3        1 MOL      0.145892
     21 C8          6.2970    2.3360   -0.6970 c         1 MOL      0.897872
     22 O5          5.6310    3.0480    0.0110 o         1 MOL     -0.624251
     23 C9          8.4350    3.4320   -0.0080 c3        1 MOL     -0.549669
     24 H8          7.9410    1.9960    2.0160 hn        1 MOL      0.312328
     25 H9          8.1470    1.3990   -0.7830 h1        1 MOL      0.019419
     26 H10         9.3720    3.2020    0.5050 hc        1 MOL      0.150314
     27 H11         8.4240    3.9260   -0.9800 hc        1 MOL      0.150314
     28 H12         7.9380    4.1740    0.6190 hc        1 MOL      0.150314
     29 N3          5.9020    1.8050   -1.8270 n         1 MOL     -0.846829
     30 C10         4.5530    2.1620   -2.3510 c3        1 MOL      0.049832
     31 C11         4.5730    3.5520   -2.9220 c         1 MOL      0.694464
     32 O6          5.6090    4.1530   -3.2210 o         1 MOL     -0.547248
     33 C12         4.1260    1.1580   -3.5110 c3        1 MOL     -0.209618
     34 C13         4.1740   -0.3200   -3.2320 c         1 MOL      0.944151
     35 O7          3.3640   -0.7980   -2.4340 o         1 MOL     -0.771218
     36 O8          4.7420   -1.1420   -4.0420 o         1 MOL     -0.771218
     37 H13         6.5520    1.3560   -2.4540 hn        1 MOL      0.379212
     38 H14         3.7050    2.0130   -1.6870 h1        1 MOL      0.090503
     39 H15         4.7840    1.2850   -4.3700 hc        1 MOL      0.027708
     40 H16         3.0890    1.4080   -3.7780 hc        1 MOL      0.027708
     41 N4          3.3990    4.1180   -3.0450 n         1 MOL     -0.511385
     42 C14         3.2350    5.4860   -3.4630 c3        1 MOL     -0.084150
     43 C15         1.9900    6.1830   -3.0100 c         1 MOL      0.688560
     44 O9          1.8380    7.3780   -3.3280 o         1 MOL     -0.603628
     45 H17         2.5890    3.6060   -2.7330 hn        1 MOL      0.293110
     46 H18         3.2140    5.5270   -4.5500 h1        1 MOL      0.081736
     47 H19         4.0210    6.1210   -3.0540 h1        1 MOL      0.081736
     48 N5          1.0210    5.4920   -2.3560 n         1 MOL     -0.607175
     49 C16        -0.3640    6.0270   -2.1130 c3        1 MOL      0.424061
     50 C17        -0.6670    5.9370   -0.6480 c         1 MOL      0.383811
     51 O10        -0.0780    5.1850    0.1450 o         1 MOL     -0.454900
     52 C18        -1.3160    5.3230   -3.0670 c3        1 MOL     -0.208342
     53 C19        -2.6980    6.0110   -3.0690 c         1 MOL      0.565329
     54 N6         -3.7000    5.2060   -3.3640 n         1 MOL     -0.741716
     55 O11        -2.8940    7.1640   -2.6830 o         1 MOL     -0.540851
     56 H20         1.2750    4.5750   -2.0230 hn        1 MOL      0.279638
     57 H21        -0.4270    7.0710   -2.4310 h1        1 MOL     -0.015417
     58 H22        -1.3470    4.2700   -2.8050 hc        1 MOL      0.075587
     59 H23        -0.9240    5.3900   -4.0840 hc        1 MOL      0.075587
     60 H24        -3.5320    4.3840   -3.9300 hn        1 MOL      0.356669
     61 H25        -4.6280    5.5860   -3.3020 hn        1 MOL      0.356669
     62 N7         -1.5150    6.8700   -0.1560 n         1 MOL     -0.458760
     63 C20        -2.1270    6.8220    1.1950 c3        1 MOL      0.011080
     64 C21        -3.1820    5.6740    1.3350 c         1 MOL      0.475477
     65 O12        -3.7300    5.2370    0.2790 o         1 MOL     -0.424127
     66 H26        -1.8420    7.5870   -0.7890 hn        1 MOL      0.305279
     67 H27        -2.5300    7.7860    1.5040 h1        1 MOL      0.059244
     68 H28        -1.3610    6.5380    1.9250 h1        1 MOL      0.059244
     69 N8         -3.4720    5.2570    2.5720 n         1 MOL     -0.337161
     70 C22        -4.7090    4.6200    2.9530 c3        1 MOL     -0.337794
     71 C23        -4.5740    3.0920    2.9900 c         1 MOL      0.757972
     72 O13        -5.5270    2.5230    2.6220 o         1 MOL     -0.554764
     73 C24        -5.2780    5.1660    4.3560 c3        1 MOL      0.570353
     74 C25        -4.4960    4.7910    5.6440 c3        1 MOL     -0.426176
     75 O14        -5.3790    6.5720    4.2380 oh        1 MOL     -0.647121
     76 H29        -2.9970    5.7850    3.2890 hn        1 MOL      0.216652
     77 H30        -5.4820    4.8760    2.2350 h1        1 MOL      0.129466
     78 H31        -6.2840    4.7610    4.3780 h1        1 MOL     -0.000109
     79 H32        -4.5400    6.9310    3.9320 ho        1 MOL      0.367959
     80 H33        -4.6640    3.7560    5.9260 hc        1 MOL      0.097981
     81 H34        -3.4290    4.9500    5.4510 hc        1 MOL      0.097981
     82 H35        -4.8410    5.5460    6.3460 hc        1 MOL      0.097981
     83 N9         -3.4240    2.6100    3.4760 n         1 MOL     -0.508097
     84 C26        -3.1270    1.1910    3.4410 c3        1 MOL     -0.061208
     85 C27        -2.3210    0.7740    2.2100 c         1 MOL      0.790926
     86 O15        -1.4950    1.5600    1.7750 o         1 MOL     -0.558057
     87 C28        -2.3610    0.7270    4.7260 c3        1 MOL      0.122330
     88 C29        -3.0850    1.1260    6.0420 c3        1 MOL     -0.121826
     89 C30        -2.2550   -0.7960    4.7840 c3        1 MOL     -0.044738
     90 C31        -4.5600    0.7220    6.1930 c3        1 MOL     -0.059566
     91 H36        -2.6290    3.1820    3.6920 hn        1 MOL      0.281135
     92 H37        -4.0020    0.5450    3.4560 h1        1 MOL      0.055959
     93 H38        -1.3280    1.0740    4.7250 hc        1 MOL      0.023149
     94 H39        -2.9340    2.1690    6.3290 hc        1 MOL      0.029938
     95 H40        -2.5490    0.6430    6.8530 hc        1 MOL      0.029938
     96 H41        -3.2460   -1.2200    4.6590 hc        1 MOL      0.010336
     97 H42        -1.6200   -1.1180    3.9570 hc        1 MOL      0.010336
     98 H43        -1.7940   -1.1910    5.6900 hc        1 MOL      0.010336
     99 H44        -4.9140    0.8910    7.2080 hc        1 MOL      0.019524
    100 H45        -5.1440    1.3060    5.4790 hc        1 MOL      0.019524
    101 H46        -4.7400   -0.3550    6.1020 hc        1 MOL      0.019524
    102 N10        -2.5800   -0.4270    1.6510 n         1 MOL     -0.946872
    103 C32        -1.7650   -0.9940    0.5270 c3        1 MOL      0.667198
    104 C33        -2.5960   -1.7310   -0.6340 c         1 MOL      0.266833
    105 O16        -2.2180   -2.7750   -1.1700 o         1 MOL     -0.367284
    106 C34        -0.8020   -1.9790    1.2470 c3        1 MOL     -0.330102
    107 C35         0.5240   -2.1770    0.5010 c         1 MOL      0.742922
    108 O17         0.8690   -1.3560   -0.3630 o         1 MOL     -0.703818
    109 O18         1.2670   -3.1210    0.8000 o         1 MOL     -0.703818
    110 H47        -3.1230   -1.0960    2.1890 hn        1 MOL      0.389002
    111 H48        -1.1500   -0.2520    0.0190 h1        1 MOL     -0.028761
    112 H49        -1.3020   -2.9260    1.4580 hc        1 MOL      0.041100
    113 H50        -0.4410   -1.5390    2.1850 hc        1 MOL      0.041100
    114 N11        -3.7960   -1.1970   -0.9580 n         1 MOL     -0.468127
    115 C36        -4.9000   -1.8850   -1.6770 c3        1 MOL      0.276413
    116 C37        -5.1550   -3.3550   -1.1530 c         1 MOL      0.224771
    117 O19        -5.5180   -3.4520    0.0790 o         1 MOL     -0.512183
    118 C38        -6.1770   -1.1330   -1.5580 c3        1 MOL     -0.129082
    119 C39        -6.3350    0.0860   -2.4610 ca        1 MOL      0.109312
    120 C40        -6.0740    1.3930   -2.0210 ca        1 MOL     -0.181200
    121 C41        -6.6110   -0.0340   -3.8760 ca        1 MOL     -0.181200
    122 C42        -6.1310    2.5090   -2.8440 ca        1 MOL     -0.083384
    123 C43        -6.6630    1.0960   -4.6570 ca        1 MOL     -0.083384
    124 C44        -6.5130    2.3770   -4.1780 ca        1 MOL     -0.135073
    125 H51        -4.0170   -0.2950   -0.5760 hn        1 MOL      0.280492
    126 H52        -4.6550   -1.7810   -2.7350 h1        1 MOL      0.016719
    127 H53        -6.5500   -0.8820   -0.5630 hc        1 MOL      0.059380
    128 H54        -6.9100   -1.8430   -1.9480 hc        1 MOL      0.059380
    129 H55        -5.8400    1.5160   -0.9810 ha        1 MOL      0.116380
    130 H56        -6.8190   -1.0330   -4.2470 ha        1 MOL      0.116380
    131 H57        -6.0880    3.4400   -2.3090 ha        1 MOL      0.094786
    132 H58        -6.9210    1.0550   -5.7000 ha        1 MOL      0.094786
    133 H59        -6.5620    3.2130   -4.8450 ha        1 MOL      0.101306
    134 N12        -5.0220   -4.4270   -1.9590 n         1 MOL      0.070692
    135 C45        -5.4010   -5.7630   -1.5680 c3        1 MOL     -0.062421
    136 C46        -4.3420   -6.4390   -0.7220 c         1 MOL      0.348711
    137 O20        -4.6630   -7.4640   -0.1010 o         1 MOL     -0.507421
    138 C47        -5.6980   -6.4830   -2.9110 c3        1 MOL     -0.001357
    139 C48        -4.6930   -5.8550   -3.7910 c3        1 MOL      0.211360
    140 C49        -4.6490   -4.3540   -3.3690 c3        1 MOL     -0.420249
    141 H60        -6.3400   -5.6610   -1.0190 h1        1 MOL      0.077703
    142 H61        -5.6390   -7.5730   -2.9090 hc        1 MOL      0.014348
    143 H62        -6.6450   -6.1730   -3.3620 hc        1 MOL      0.014348
    144 H63        -3.7490   -6.3400   -3.5460 hc        1 MOL     -0.027056
    145 H64        -4.8790   -6.0240   -4.8540 hc        1 MOL     -0.027056
    146 H65        -3.6450   -3.9740   -3.5600 h1        1 MOL      0.124272
    147 H66        -5.3770   -3.7970   -3.9570 h1        1 MOL      0.124272
    148 N13        -3.0810   -5.9500   -0.7510 n         1 MOL     -0.137060
    149 C50        -1.9660   -6.6530   -0.1040 c3        1 MOL     -0.198130
    150 C51        -2.0950   -6.8010    1.4130 c         1 MOL      0.483244
    151 O21        -1.6580   -7.7770    2.0340 o         1 MOL     -0.530034
    152 C52        -0.6180   -5.8370   -0.2190 c3        1 MOL      0.096330
    153 C53         0.0490   -5.8980   -1.6340 c3        1 MOL     -0.146983
    154 C54         1.3380   -5.0600   -1.6730 c         1 MOL      0.634883
    155 O22         2.3610   -5.4050   -1.0530 o         1 MOL     -0.709250
    156 O23         1.3000   -3.9890   -2.3330 o         1 MOL     -0.709250
    157 H67        -2.7830   -5.3290   -1.4900 hn        1 MOL      0.295216
    158 H68        -1.7160   -7.6060   -0.5690 h1        1 MOL      0.111964
    159 H69         0.1450   -6.2700    0.4380 hc        1 MOL      0.025487
    160 H70        -0.7370   -4.7560   -0.1120 hc        1 MOL      0.025487
    161 H71        -0.6870   -5.6200   -2.3840 hc        1 MOL     -0.000513
    162 H72         0.3550   -6.9420   -1.7360 hc        1 MOL     -0.000513
    163 N14        -2.7960   -5.8530    2.1490 n         1 MOL     -0.236849
    164 C55        -2.8150   -5.9220    3.6410 c3        1 MOL     -0.288592
    165 H73        -2.8260   -6.9660    3.9550 h1        1 MOL      0.114493
    166 H74        -1.9270   -5.4330    4.0390 h1        1 MOL      0.114493
    167 H75        -3.7070   -5.4200    4.0170 h1        1 MOL      0.114493
    168 H76        -3.1660   -5.0600    1.6410 hn        1 MOL      0.224594
    169 Ca1         3.2790   -2.8160   -0.8370 Ca        1 MOL      1.760803
    170 O24         4.6670   -4.1380    1.0280 oh        1 MOL     -0.841403
    171 H77         4.5410   -4.2020    1.9760 ho        1 MOL      0.393686
    172 H78         5.5870   -4.4000    0.8910 ho        1 MOL      0.393686
    173 O25         5.8310   -2.4210   -1.0040 oh        1 MOL     -0.841403
    174 H79         6.4640   -2.1230   -1.6490 ho        1 MOL      0.393686
    175 H80         6.0020   -1.8840   -0.2300 ho        1 MOL      0.393686
    176 O26         3.9630   -0.5160    0.7440 oh        1 MOL     -0.841403
    177 H81         4.7970   -0.1010    0.5290 ho        1 MOL      0.393686
    178 H82         3.3760    0.2130    0.9330 ho        1 MOL      0.393686
    179 O27         4.0870   -3.5360   -3.3610 oh        1 MOL     -0.841403
    180 H83         4.4420   -2.6880   -3.6430 ho        1 MOL      0.393686
    181 H84         4.6840   -4.1850   -3.7560 ho        1 MOL      0.393686
@<TRIPOS>BOND
     1    1    2 1   
     2    1    4 1   
     3    1    5 1   
     4    1    6 1   
     5    2    3 2   
     6    2    7 1   
     7    7    8 1   
     8    7   15 1   
     9    8    9 1   
    10    8   11 1   
    11    8   16 1   
    12    9   10 2   
    13    9   19 1   
    14   11   12 1   
    15   11   17 1   
    16   11   18 1   
    17   12   13 1   
    18   12   14 1   
    19   19   20 1   
    20   19   24 1   
    21   20   21 1   
    22   20   23 1   
    23   20   25 1   
    24   21   22 2   
    25   21   29 1   
    26   23   26 1   
    27   23   27 1   
    28   23   28 1   
    29   29   30 1   
    30   29   37 1   
    31   30   31 1   
    32   30   33 1   
    33   30   38 1   
    34   31   32 2   
    35   31   41 1   
    36   33   34 1   
    37   33   39 1   
    38   33   40 1   
    39   34   35 1   
    40   34   36 1   
    41   41   42 1   
    42   41   45 1   
    43   42   43 1   
    44   42   46 1   
    45   42   47 1   
    46   43   44 2   
    47   43   48 1   
    48   48   49 1   
    49   48   56 1   
    50   49   50 1   
    51   49   52 1   
    52   49   57 1   
    53   50   51 2   
    54   50   62 1   
    55   52   53 1   
    56   52   58 1   
    57   52   59 1   
    58   53   54 1   
    59   53   55 2   
    60   54   60 1   
    61   54   61 1   
    62   62   63 1   
    63   62   66 1   
    64   63   64 1   
    65   63   67 1   
    66   63   68 1   
    67   64   65 2   
    68   64   69 1   
    69   69   70 1   
    70   69   76 1   
    71   70   71 1   
    72   70   73 1   
    73   70   77 1   
    74   71   72 2   
    75   71   83 1   
    76   73   74 1   
    77   73   75 1   
    78   73   78 1   
    79   74   80 1   
    80   74   81 1   
    81   74   82 1   
    82   75   79 1   
    83   83   84 1   
    84   83   91 1   
    85   84   85 1   
    86   84   87 1   
    87   84   92 1   
    88   85   86 2   
    89   85  102 1   
    90   87   88 1   
    91   87   89 1   
    92   87   93 1   
    93   88   90 1   
    94   88   94 1   
    95   88   95 1   
    96   89   96 1   
    97   89   97 1   
    98   89   98 1   
    99   90   99 1   
   100   90  100 1   
   101   90  101 1   
   102  102  103 1   
   103  102  110 1   
   104  103  104 1   
   105  103  106 1   
   106  103  111 1   
   107  104  105 2   
   108  104  114 1   
   109  106  107 1   
   110  106  112 1   
   111  106  113 1   
   112  107  108 1   
   113  107  109 1   
   114  114  115 1   
   115  114  125 1   
   116  115  116 1   
   117  115  118 1   
   118  115  126 1   
   119  116  117 2   
   120  116  134 1   
   121  118  119 1   
   122  118  127 1   
   123  118  128 1   
   124  119  120 ar  
   125  119  121 ar  
   126  120  122 ar  
   127  120  129 1   
   128  121  123 ar  
   129  121  130 1   
   130  122  124 ar  
   131  122  131 1   
   132  123  124 ar  
   133  123  132 1   
   134  124  133 1   
   135  134  135 1   
   136  134  140 1   
   137  135  136 1   
   138  135  138 1   
   139  135  141 1   
   140  136  137 2   
   141  136  148 1   
   142  138  139 1   
   143  138  142 1   
   144  138  143 1   
   145  139  140 1   
   146  139  144 1   
   147  139  145 1   
   148  140  146 1   
   149  140  147 1   
   150  148  149 1   
   151  148  157 1   
   152  149  150 1   
   153  149  152 1   
   154  149  158 1   
   155  150  151 2   
   156  150  163 1   
   157  152  153 1   
   158  152  159 1   
   159  152  160 1   
   160  153  154 1   
   161  153  161 1   
   162  153  162 1   
   163  154  155 1   
   164  154  156 1   
   165  163  164 1   
   166  163  168 1   
   167  164  165 1   
   168  164  166 1   
   169  164  167 1   
   170  170  171 1   
   171  170  172 1   
   172  173  174 1   
   173  173  175 1   
   174  176  177 1   
   175  176  178 1   
   176  179  180 1   
   177  179  181 1   
@<TRIPOS>SUBSTRUCTURE
     1 MOL         1 TEMP              0 ****  ****    0 ROOT
