@<TRIPOS>MOLECULE
MOL
  181   177     1     0     0
SMALL
resp


@<TRIPOS>ATOM
      1 C1          4.3330   -1.9230    4.2390 c3        1 MOL     -0.370007
      2 C2          5.5130   -1.0640    3.8020 c         1 MOL      0.734142
      3 O1          5.6160    0.1260    4.1560 o         1 MOL     -0.584354
      4 H1          4.4620   -2.2150    5.2810 hc        1 MOL      0.084580
      5 H2          3.4090   -1.3530    4.1340 hc        1 MOL      0.084580
      6 H3          4.2820   -2.8170    3.6160 hc        1 MOL      0.084580
      7 N1          6.4550   -1.7190    3.1050 n         1 MOL     -0.613474
      8 C3          7.6200   -1.0340    2.5680 c3        1 MOL      0.251871
      9 C4          7.4540   -0.9420    1.0430 c         1 MOL      0.643781
     10 O2          6.8880   -1.7790    0.3920 o         1 MOL     -0.593267
     11 C5          8.8600   -1.7180    3.1160 c3        1 MOL     -0.137713
     12 C6         10.1720   -0.9430    2.8960 c         1 MOL      0.700941
     13 O3         10.0590    0.3090    2.8510 o         1 MOL     -0.724148
     14 O4         11.2560   -1.4810    2.8840 o         1 MOL     -0.724148
     15 H4          6.1820   -2.5740    2.6250 hn        1 MOL      0.273975
     16 H5          7.5760   -0.0310    2.9630 h1        1 MOL      0.016090
     17 H6          8.9160   -2.7030    2.6410 hc        1 MOL     -0.003166
     18 H7          8.7220   -1.9650    4.1660 hc        1 MOL     -0.003166
     19 N2          7.9170    0.1330    0.4150 n         1 MOL     -0.738419
     20 C7          7.7680    0.5280   -1.0380 c3        1 MOL      0.643582
     21 C8          6.3180    1.0360   -1.2830 c         1 MOL      0.348362
     22 O5          5.4860    1.1290   -0.4060 o         1 MOL     -0.481222
     23 C9          8.9080    1.4260   -1.5340 c3        1 MOL     -0.466397
     24 H8          8.2300    0.8990    1.0050 hn        1 MOL      0.305513
     25 H9          7.9000   -0.3990   -1.6080 h1        1 MOL     -0.030183
     26 H10         9.8800    0.9920   -1.3070 hc        1 MOL      0.112662
     27 H11         8.9370    1.5870   -2.6020 hc        1 MOL      0.112662
     28 H12         8.8470    2.3710   -0.9980 hc        1 MOL      0.112662
     29 N3          5.9070    1.2630   -2.5160 n         1 MOL     -0.584001
     30 C10         4.5460    1.6690   -2.8290 c3        1 MOL      0.282313
     31 C11         4.4600    3.1190   -3.3850 c         1 MOL      0.491496
     32 O6          5.4410    3.5770   -4.0670 o         1 MOL     -0.538130
     33 C12         3.8510    0.7070   -3.7540 c3        1 MOL     -0.382874
     34 C13         3.9650   -0.7730   -3.2950 c         1 MOL      0.889890
     35 O7          4.9470   -1.4340   -3.5720 o         1 MOL     -0.760899
     36 O8          3.0210   -1.3600   -2.7390 o         1 MOL     -0.760899
     37 H13         6.6340    1.3840   -3.2130 hn        1 MOL      0.288145
     38 H14         3.9670    1.6080   -1.9210 h1        1 MOL      0.053707
     39 H15         4.4460    0.6960   -4.6750 hc        1 MOL      0.083515
     40 H16         2.8500    1.0850   -3.9760 hc        1 MOL      0.083515
     41 N4          3.3520    3.8350   -3.2060 n         1 MOL     -0.356847
     42 C14         3.0730    5.0490   -3.9650 c3        1 MOL     -0.061846
     43 C15         1.9140    5.9820   -3.6310 c         1 MOL      0.636492
     44 O9          2.0430    7.2080   -3.6770 o         1 MOL     -0.558311
     45 H17         2.5870    3.5040   -2.6230 hn        1 MOL      0.231490
     46 H18         3.1430    4.7780   -5.0180 h1        1 MOL      0.070139
     47 H19         3.9510    5.6830   -3.9120 h1        1 MOL      0.070139
     48 N5          0.7800    5.3870   -3.1540 n         1 MOL     -0.582622
     49 C16        -0.4940    6.0970   -2.6740 c3        1 MOL      0.240990
     50 C17        -0.5930    5.8430   -1.1600 c         1 MOL      0.510805
     51 O10        -0.2120    4.7660   -0.6870 o         1 MOL     -0.447522
     52 C18        -1.6520    5.4550   -3.4420 c3        1 MOL     -0.503520
     53 C19        -1.7380    5.8730   -4.9260 c         1 MOL      0.789419
     54 N6         -2.5940    6.8680   -5.3140 n         1 MOL     -0.852363
     55 O11        -1.1010    5.2660   -5.7660 o         1 MOL     -0.550042
     56 H20         0.9100    4.4260   -2.8850 hn        1 MOL      0.325666
     57 H21        -0.4550    7.1740   -2.8450 h1        1 MOL      0.033647
     58 H22        -2.5680    5.8110   -2.9630 hc        1 MOL      0.142624
     59 H23        -1.6800    4.3740   -3.3450 hc        1 MOL      0.142624
     60 H24        -3.0260    7.3490   -4.5450 hn        1 MOL      0.369076
     61 H25        -2.8790    6.9960   -6.2720 hn        1 MOL      0.369076
     62 N7         -1.0470    6.8100   -0.3600 n         1 MOL     -0.426848
     63 C20        -1.2310    6.6750    1.1210 c3        1 MOL     -0.357778
     64 C21        -2.5360    6.0190    1.6030 c         1 MOL      0.676315
     65 O12        -3.3300    5.6240    0.7430 o         1 MOL     -0.475788
     66 H26        -1.2940    7.6700   -0.8150 hn        1 MOL      0.284315
     67 H27        -1.3840    7.6990    1.4610 h1        1 MOL      0.172897
     68 H28        -0.3280    6.1940    1.4870 h1        1 MOL      0.172897
     69 N8         -2.6490    5.9700    2.9130 n         1 MOL     -0.554203
     70 C22        -3.9790    5.6010    3.4230 c3        1 MOL     -0.125555
     71 C23        -4.2240    4.0690    3.3940 c         1 MOL      0.375957
     72 O13        -5.3680    3.6340    3.0870 o         1 MOL     -0.536490
     73 C24        -4.2020    6.0840    4.7890 c3        1 MOL      0.535620
     74 C25        -3.1840    5.6530    5.8660 c3        1 MOL     -0.442655
     75 O14        -4.3480    7.4510    4.7370 oh        1 MOL     -0.643635
     76 H29        -1.9220    6.3920    3.4700 hn        1 MOL      0.289286
     77 H30        -4.7790    5.9920    2.7990 h1        1 MOL      0.110965
     78 H31        -5.1230    5.6970    5.2070 h1        1 MOL      0.027420
     79 H32        -3.4700    7.7610    4.5210 ho        1 MOL      0.373064
     80 H33        -3.4420    6.1580    6.7990 hc        1 MOL      0.102560
     81 H34        -3.3690    4.5840    6.0030 hc        1 MOL      0.102560
     82 H35        -2.1310    5.8050    5.6240 hc        1 MOL      0.102560
     83 N9         -3.1830    3.2920    3.6060 n         1 MOL     -0.117167
     84 C26        -3.1670    1.8550    3.4870 c3        1 MOL     -0.019398
     85 C27        -2.1460    1.3570    2.4740 c         1 MOL      0.514595
     86 O15        -1.2530    2.0530    1.9430 o         1 MOL     -0.538969
     87 C28        -3.1160    1.1120    4.8410 c3        1 MOL      0.058806
     88 C29        -1.9840    1.4830    5.8330 c3        1 MOL     -0.008996
     89 C30        -4.3950    1.1900    5.6900 c3        1 MOL     -0.370733
     90 C31        -0.6300    0.9680    5.4350 c3        1 MOL     -0.121903
     91 H36        -2.2800    3.6740    3.8610 hn        1 MOL      0.201125
     92 H37        -4.1340    1.7050    3.0140 h1        1 MOL      0.082394
     93 H38        -3.1040    0.0410    4.6320 hc        1 MOL      0.051447
     94 H39        -2.2160    1.1110    6.8270 hc        1 MOL      0.009470
     95 H40        -1.9610    2.5720    5.8330 hc        1 MOL      0.009470
     96 H41        -4.6150    2.1940    6.0330 hc        1 MOL      0.087454
     97 H42        -5.1740    0.7330    5.0950 hc        1 MOL      0.087454
     98 H43        -4.2690    0.5470    6.5620 hc        1 MOL      0.087454
     99 H44        -0.6860   -0.1220    5.5280 hc        1 MOL      0.045211
    100 H45        -0.3280    1.1980    4.4150 hc        1 MOL      0.045211
    101 H46         0.0930    1.3400    6.1600 hc        1 MOL      0.045211
    102 N10        -2.3590    0.1490    1.9660 n         1 MOL     -0.469468
    103 C32        -1.5000   -0.5090    0.9280 c3        1 MOL      0.262102
    104 C33        -2.4000   -1.1700   -0.1850 c         1 MOL      0.400186
    105 O16        -2.0280   -2.1870   -0.7640 o         1 MOL     -0.361186
    106 C34        -0.6040   -1.5580    1.7010 c3        1 MOL     -0.122962
    107 C35         0.4430   -2.1210    0.8200 c         1 MOL      0.778970
    108 O17         0.8740   -3.2990    0.9930 o         1 MOL     -0.759523
    109 O18         0.9010   -1.4770   -0.1760 o         1 MOL     -0.759523
    110 H47        -3.0060   -0.4680    2.4290 hn        1 MOL      0.228256
    111 H48        -0.9020    0.2250    0.3960 h1        1 MOL      0.068530
    112 H49        -1.2160   -2.4160    1.9950 hc        1 MOL      0.006355
    113 H50        -0.2040   -1.2010    2.6420 hc        1 MOL      0.006355
    114 N11        -3.5650   -0.5430   -0.4280 n         1 MOL     -0.461444
    115 C36        -4.7420   -1.0970   -1.0940 c3        1 MOL      0.188624
    116 C37        -5.0090   -2.5220   -0.6890 c         1 MOL      0.075599
    117 O19        -4.9590   -2.8810    0.5040 o         1 MOL     -0.399000
    118 C38        -5.9400   -0.1760   -0.7100 c3        1 MOL     -0.251612
    119 C39        -7.1170   -0.4360   -1.5690 ca        1 MOL      0.128191
    120 C40        -7.3050    0.3750   -2.6970 ca        1 MOL     -0.186044
    121 C41        -7.9850   -1.4920   -1.3080 ca        1 MOL     -0.186044
    122 C42        -8.4250    0.0830   -3.5000 ca        1 MOL     -0.085001
    123 C43        -9.1200   -1.7440   -2.1170 ca        1 MOL     -0.085001
    124 C44        -9.3560   -0.9640   -3.2320 ca        1 MOL     -0.150333
    125 H51        -3.7150    0.3150    0.0780 hn        1 MOL      0.262293
    126 H52        -4.5340   -1.1210   -2.1710 h1        1 MOL      0.040960
    127 H53        -5.6910    0.8770   -0.5780 hc        1 MOL      0.118300
    128 H54        -6.1530   -0.4060    0.3350 hc        1 MOL      0.118300
    129 H55        -6.6530    1.2090   -2.8860 ha        1 MOL      0.129955
    130 H56        -7.7820   -2.0330   -0.3950 ha        1 MOL      0.129955
    131 H57        -8.4960    0.6880   -4.3950 ha        1 MOL      0.099903
    132 H58        -9.7620   -2.5910   -1.9100 ha        1 MOL      0.099903
    133 H59       -10.1390   -1.2000   -3.9350 ha        1 MOL      0.115749
    134 N12        -5.3180   -3.4260   -1.6770 n         1 MOL      0.007996
    135 C45        -5.6690   -4.8570   -1.4820 c3        1 MOL      0.194345
    136 C46        -4.7820   -5.7030   -0.5420 c         1 MOL      0.168088
    137 O20        -5.2120   -6.6590    0.0580 o         1 MOL     -0.512840
    138 C47        -5.6470   -5.4810   -2.8340 c3        1 MOL     -0.007624
    139 C48        -6.1320   -4.3370   -3.7420 c3        1 MOL     -0.257134
    140 C49        -5.5080   -3.1140   -3.0810 c3        1 MOL      0.065560
    141 H60        -6.7030   -4.9160   -1.1360 h1        1 MOL      0.030592
    142 H61        -4.6330   -5.7330   -3.1580 hc        1 MOL      0.045592
    143 H62        -6.3390   -6.3200   -2.8710 hc        1 MOL      0.045592
    144 H63        -5.7590   -4.4750   -4.7590 hc        1 MOL      0.070502
    145 H64        -7.2130   -4.3650   -3.6740 hc        1 MOL      0.070502
    146 H65        -4.5370   -2.9370   -3.5440 h1        1 MOL      0.050765
    147 H66        -6.2010   -2.2840   -3.2690 h1        1 MOL      0.050765
    148 N13        -3.5020   -5.4280   -0.3200 n         1 MOL     -0.012893
    149 C50        -2.5600   -6.3240    0.3620 c3        1 MOL     -0.157732
    150 C51        -2.5700   -6.1530    1.9210 c         1 MOL      0.371931
    151 O21        -1.9800   -6.9070    2.6630 o         1 MOL     -0.517602
    152 C52        -1.1430   -5.9240   -0.0160 c3        1 MOL      0.036132
    153 C53        -0.7920   -6.1700   -1.4200 c3        1 MOL     -0.219976
    154 C54         0.4570   -5.3350   -1.7290 c         1 MOL      0.724849
    155 O22         0.4020   -4.1990   -2.2810 o         1 MOL     -0.760994
    156 O23         1.5930   -5.6960   -1.2560 o         1 MOL     -0.760994
    157 H67        -3.1830   -4.5390   -0.6820 hn        1 MOL      0.098770
    158 H68        -2.6960   -7.3960    0.2120 h1        1 MOL      0.133213
    159 H69        -0.3860   -6.3640    0.6320 hc        1 MOL      0.067916
    160 H70        -1.2530   -4.8650    0.2400 hc        1 MOL      0.067916
    161 H71        -1.4920   -5.8460   -2.1900 hc        1 MOL      0.032354
    162 H72        -0.5510   -7.1950   -1.6910 hc        1 MOL      0.032354
    163 N14        -3.3240   -5.1290    2.4110 n         1 MOL     -0.118851
    164 C55        -3.4980   -4.7780    3.8730 c3        1 MOL     -0.180693
    165 H73        -3.0910   -5.5800    4.4890 h1        1 MOL      0.079025
    166 H74        -2.9690   -3.8500    4.0910 h1        1 MOL      0.079025
    167 H75        -4.5580   -4.6540    4.0940 h1        1 MOL      0.079025
    168 H76        -3.8350   -4.5720    1.7500 hn        1 MOL      0.173979
    169 Ca1         2.6610   -3.2770   -1.1010 Ca        1 MOL      1.794208
    170 O24         4.0790   -1.4580    0.4100 oh        1 MOL     -0.863947
    171 H77         4.8840   -1.9140    0.6240 ho        1 MOL      0.411746
    172 H78         4.3490   -0.7460   -0.1690 ho        1 MOL      0.411746
    173 O25         4.1190   -4.3030    1.1830 oh        1 MOL     -0.863947
    174 H79         3.7290   -5.0590    1.6210 ho        1 MOL      0.411746
    175 H80         4.7480   -3.9500    1.8160 ho        1 MOL      0.411746
    176 O26         3.0920   -4.0050   -3.7490 oh        1 MOL     -0.863947
    177 H81         3.1040   -4.8540   -4.1830 ho        1 MOL      0.411746
    178 H82         3.3100   -3.3750   -4.4440 ho        1 MOL      0.411746
    179 O27         5.2370   -3.4940   -1.9240 oh        1 MOL     -0.863947
    180 H83         5.1420   -2.7150   -2.4780 ho        1 MOL      0.411746
    181 H84         6.1770   -3.5330   -1.7320 ho        1 MOL      0.411746
@<TRIPOS>BOND
     1    1    2 1   
     2    1    4 1   
     3    1    5 1   
     4    1    6 1   
     5    2    3 2   
     6    2    7 1   
     7    7    8 1   
     8    7   15 1   
     9    8    9 1   
    10    8   11 1   
    11    8   16 1   
    12    9   10 2   
    13    9   19 1   
    14   11   12 1   
    15   11   17 1   
    16   11   18 1   
    17   12   13 1   
    18   12   14 1   
    19   19   20 1   
    20   19   24 1   
    21   20   21 1   
    22   20   23 1   
    23   20   25 1   
    24   21   22 2   
    25   21   29 1   
    26   23   26 1   
    27   23   27 1   
    28   23   28 1   
    29   29   30 1   
    30   29   37 1   
    31   30   31 1   
    32   30   33 1   
    33   30   38 1   
    34   31   32 2   
    35   31   41 1   
    36   33   34 1   
    37   33   39 1   
    38   33   40 1   
    39   34   35 1   
    40   34   36 1   
    41   41   42 1   
    42   41   45 1   
    43   42   43 1   
    44   42   46 1   
    45   42   47 1   
    46   43   44 2   
    47   43   48 1   
    48   48   49 1   
    49   48   56 1   
    50   49   50 1   
    51   49   52 1   
    52   49   57 1   
    53   50   51 2   
    54   50   62 1   
    55   52   53 1   
    56   52   58 1   
    57   52   59 1   
    58   53   54 1   
    59   53   55 2   
    60   54   60 1   
    61   54   61 1   
    62   62   63 1   
    63   62   66 1   
    64   63   64 1   
    65   63   67 1   
    66   63   68 1   
    67   64   65 2   
    68   64   69 1   
    69   69   70 1   
    70   69   76 1   
    71   70   71 1   
    72   70   73 1   
    73   70   77 1   
    74   71   72 2   
    75   71   83 1   
    76   73   74 1   
    77   73   75 1   
    78   73   78 1   
    79   74   80 1   
    80   74   81 1   
    81   74   82 1   
    82   75   79 1   
    83   83   84 1   
    84   83   91 1   
    85   84   85 1   
    86   84   87 1   
    87   84   92 1   
    88   85   86 2   
    89   85  102 1   
    90   87   88 1   
    91   87   89 1   
    92   87   93 1   
    93   88   90 1   
    94   88   94 1   
    95   88   95 1   
    96   89   96 1   
    97   89   97 1   
    98   89   98 1   
    99   90   99 1   
   100   90  100 1   
   101   90  101 1   
   102  102  103 1   
   103  102  110 1   
   104  103  104 1   
   105  103  106 1   
   106  103  111 1   
   107  104  105 2   
   108  104  114 1   
   109  106  107 1   
   110  106  112 1   
   111  106  113 1   
   112  107  108 1   
   113  107  109 1   
   114  114  115 1   
   115  114  125 1   
   116  115  116 1   
   117  115  118 1   
   118  115  126 1   
   119  116  117 2   
   120  116  134 1   
   121  118  119 1   
   122  118  127 1   
   123  118  128 1   
   124  119  120 ar  
   125  119  121 ar  
   126  120  122 ar  
   127  120  129 1   
   128  121  123 ar  
   129  121  130 1   
   130  122  124 ar  
   131  122  131 1   
   132  123  124 ar  
   133  123  132 1   
   134  124  133 1   
   135  134  135 1   
   136  134  140 1   
   137  135  136 1   
   138  135  138 1   
   139  135  141 1   
   140  136  137 2   
   141  136  148 1   
   142  138  139 1   
   143  138  142 1   
   144  138  143 1   
   145  139  140 1   
   146  139  144 1   
   147  139  145 1   
   148  140  146 1   
   149  140  147 1   
   150  148  149 1   
   151  148  157 1   
   152  149  150 1   
   153  149  152 1   
   154  149  158 1   
   155  150  151 2   
   156  150  163 1   
   157  152  153 1   
   158  152  159 1   
   159  152  160 1   
   160  153  154 1   
   161  153  161 1   
   162  153  162 1   
   163  154  155 1   
   164  154  156 1   
   165  163  164 1   
   166  163  168 1   
   167  164  165 1   
   168  164  166 1   
   169  164  167 1   
   170  170  171 1   
   171  170  172 1   
   172  173  174 1   
   173  173  175 1   
   174  176  177 1   
   175  176  178 1   
   176  179  180 1   
   177  179  181 1   
@<TRIPOS>SUBSTRUCTURE
     1 MOL         1 TEMP              0 ****  ****    0 ROOT
