@<TRIPOS>MOLECULE
MOL
  191   184     1     0     0
SMALL
resp


@<TRIPOS>ATOM
      1 C1         -6.3410   -3.0630    3.0620 c3        1 MOL     -0.448690
      2 C2         -6.2040   -2.4320    1.6470 c         1 MOL      0.666367
      3 O1         -5.4060   -1.4290    1.5140 o         1 MOL     -0.617303
      4 H1         -6.0260   -4.1070    3.0260 hc        1 MOL      0.116861
      5 H2         -5.7110   -2.5190    3.7650 hc        1 MOL      0.116861
      6 H3         -7.3790   -3.0090    3.3860 hc        1 MOL      0.116861
      7 N1         -7.0600   -2.8460    0.6810 n         1 MOL     -0.601921
      8 C3         -7.2550   -2.2370   -0.6950 c3        1 MOL      0.217955
      9 C4         -7.4770   -0.6620   -0.7740 c         1 MOL      0.344829
     10 O2         -7.8120   -0.2570   -1.9020 o         1 MOL     -0.398807
     11 C5         -6.1390   -2.7620   -1.6160 c3        1 MOL     -0.100413
     12 C6         -6.4950   -2.7350   -3.1370 c         1 MOL      0.561670
     13 O3         -5.9240   -1.8630   -3.8610 o         1 MOL     -0.589718
     14 O4         -7.5080   -3.3380   -3.5960 o         1 MOL     -0.589718
     15 H4         -7.7740   -3.5250    0.8950 hn        1 MOL      0.327369
     16 H5         -8.1810   -2.5790   -1.1590 h1        1 MOL      0.036185
     17 H6         -6.0580   -3.8110   -1.3370 hc        1 MOL      0.026226
     18 H7         -5.1610   -2.3930   -1.3270 hc        1 MOL      0.026226
     19 N2         -7.2570    0.1910    0.2810 n         1 MOL     -0.481810
     20 C7         -7.7850    1.5870    0.4030 c3        1 MOL      0.016804
     21 C8         -6.6910    2.5960    0.0060 c         1 MOL      0.534366
     22 O5         -6.8220    3.7890    0.3160 o         1 MOL     -0.586663
     23 C9         -8.3930    1.9060    1.7590 c3        1 MOL      0.147689
     24 C10        -9.3700    0.8390    2.0780 c3        1 MOL      0.129596
     25 C11       -10.1440    1.0760    3.4020 c3        1 MOL     -0.168229
     26 C12        -9.2050    1.3590    4.6150 c3        1 MOL      0.106137
     27 N3         -9.8580    1.0460    5.9550 n4        1 MOL     -0.249029
     28 H8         -6.8960   -0.2910    1.0930 hn        1 MOL      0.303773
     29 H9         -8.4970    1.7410   -0.4040 h1        1 MOL      0.071675
     30 H10        -8.8640    2.8860    1.7490 hc        1 MOL     -0.018035
     31 H11        -7.5890    1.9710    2.4950 hc        1 MOL     -0.018035
     32 H12        -8.9200   -0.1520    2.2110 hc        1 MOL     -0.014673
     33 H13       -10.0840    0.7270    1.2560 hc        1 MOL     -0.014673
     34 H14       -10.6450    0.1170    3.5450 hc        1 MOL      0.054307
     35 H15       -10.8960    1.8480    3.2410 hc        1 MOL      0.054307
     36 H16        -8.7970    2.3740    4.6440 hx        1 MOL      0.052822
     37 H17        -8.3880    0.6630    4.4450 hx        1 MOL      0.052822
     38 H18       -10.4410    0.2290    5.8780 hn        1 MOL      0.243426
     39 H19        -9.1300    0.9330    6.6430 hn        1 MOL      0.243426
     40 H20       -10.5160    1.7480    6.2680 hn        1 MOL      0.243426
     41 N4         -5.6070    2.1170   -0.5140 n         1 MOL     -0.384279
     42 C13        -4.2540    2.7900   -0.6850 c3        1 MOL      0.117763
     43 C14        -3.7020    2.5080   -2.1160 c         1 MOL      0.250590
     44 O6         -3.8580    1.4000   -2.6390 o         1 MOL     -0.381657
     45 C15        -3.2930    2.3650    0.4050 c3        1 MOL     -0.056591
     46 C16        -1.9820    3.1500    0.3550 c         1 MOL      0.543801
     47 O7         -1.9240    4.3510    0.7680 o         1 MOL     -0.712107
     48 O8         -0.9550    2.6970   -0.2670 o         1 MOL     -0.712107
     49 H21        -5.6820    1.1660   -0.8410 hn        1 MOL      0.279718
     50 H22        -4.4870    3.8440   -0.5390 h1        1 MOL      0.043983
     51 H23        -3.0840    1.3000    0.3180 hc        1 MOL      0.049051
     52 H24        -3.7970    2.4620    1.3680 hc        1 MOL      0.049051
     53 N5         -3.0920    3.5110   -2.7120 n         1 MOL     -0.049626
     54 C17        -2.6000    3.4230   -4.0360 c3        1 MOL     -0.411669
     55 C18        -1.3800    2.4400   -4.2530 c         1 MOL      0.576844
     56 O9         -0.9870    2.2350   -5.4050 o         1 MOL     -0.505528
     57 H25        -3.3060    4.4320   -2.3610 hn        1 MOL      0.217918
     58 H26        -2.2130    4.3480   -4.4680 h1        1 MOL      0.161723
     59 H27        -3.4480    3.0910   -4.6430 h1        1 MOL      0.161723
     60 N6         -0.7780    1.8070   -3.1410 n         1 MOL     -0.433949
     61 C19         0.2750    0.7880   -3.3830 c3        1 MOL     -0.050711
     62 C20        -0.3360   -0.7010   -3.6090 c         1 MOL      0.415271
     63 O10         0.3130   -1.7440   -3.6110 o         1 MOL     -0.444755
     64 C21         1.2390    0.8360   -2.2220 c3        1 MOL     -0.209109
     65 C22         1.9340    2.1580   -2.0810 c         1 MOL      0.664909
     66 N7          2.9510    2.3290   -2.9670 n         1 MOL     -0.800274
     67 O11         1.6850    3.0090   -1.2480 o         1 MOL     -0.610466
     68 H28        -0.8420    2.1400   -2.1830 hn        1 MOL      0.311343
     69 H29         0.8760    0.9970   -4.2680 h1        1 MOL      0.086042
     70 H30         1.9640    0.0350   -2.3610 hc        1 MOL      0.146482
     71 H31         0.6940    0.6950   -1.2950 hc        1 MOL      0.146482
     72 H32         3.3200    1.5310   -3.4420 hn        1 MOL      0.370471
     73 H33         3.2130    3.2960   -3.1580 hn        1 MOL      0.370471
     74 N8         -1.6890   -0.7290   -3.6920 n         1 MOL     -0.185121
     75 C23        -2.4780   -1.9550   -3.7240 c3        1 MOL     -0.280981
     76 C24        -2.5850   -2.8890   -2.4980 c         1 MOL      0.601698
     77 O12        -2.8470   -4.0810   -2.5990 o         1 MOL     -0.526392
     78 H34        -2.1640    0.1510   -3.5420 hn        1 MOL      0.227717
     79 H35        -2.1620   -2.5910   -4.5580 h1        1 MOL      0.142363
     80 H36        -3.4910   -1.5760   -3.8300 h1        1 MOL      0.142363
     81 N9         -1.9680   -2.3570   -1.4240 n         1 MOL     -0.443578
     82 C25        -1.4540   -3.1270   -0.3010 c3        1 MOL      0.136550
     83 C26        -0.0520   -2.5820    0.0640 c         1 MOL      0.457009
     84 O13         0.1220   -1.3880    0.0280 o         1 MOL     -0.493703
     85 C27        -2.4420   -3.1080    0.9330 c3        1 MOL     -0.203833
     86 C28        -1.9710   -3.8100    2.2800 ca        1 MOL     -0.025842
     87 C29        -1.7920   -5.2290    2.2550 ca        1 MOL     -0.072268
     88 C30        -1.9360   -2.9700    3.4420 ca        1 MOL     -0.072268
     89 C31        -1.3980   -5.7790    3.4580 ca        1 MOL     -0.280990
     90 C32        -1.5400   -3.5880    4.5810 ca        1 MOL     -0.280990
     91 C33        -1.3090   -4.9700    4.6230 ca        1 MOL      0.292512
     92 O14        -0.9160   -5.5390    5.7870 oh        1 MOL     -0.476652
     93 H37        -1.6960   -1.3910   -1.5220 hn        1 MOL      0.245969
     94 H38        -1.2420   -4.1350   -0.6610 h1        1 MOL      0.032552
     95 H39        -3.2770   -3.7660    0.6890 hc        1 MOL      0.128773
     96 H40        -2.7870   -2.0850    1.1030 hc        1 MOL      0.128773
     97 H41        -1.9630   -5.8400    1.3810 ha        1 MOL      0.125973
     98 H42        -2.2740   -1.9450    3.4600 ha        1 MOL      0.125973
     99 H43        -1.0070   -6.7820    3.4270 ha        1 MOL      0.149547
    100 H44        -1.2820   -3.0240    5.4620 ha        1 MOL      0.149547
    101 H45        -0.9820   -4.9290    6.5270 ho        1 MOL      0.362573
    102 N10         0.9050   -3.3910    0.4950 n         1 MOL     -0.358083
    103 C34         2.3090   -2.9940    0.9210 c3        1 MOL      0.043246
    104 C35         3.2110   -2.5520   -0.2280 c         1 MOL      0.353168
    105 O15         3.9120   -1.5150   -0.1690 o         1 MOL     -0.519353
    106 C36         2.9330   -4.1500    1.7540 c3        1 MOL      0.136469
    107 C37         2.1600   -4.6850    2.9550 c3        1 MOL     -0.065861
    108 C38         4.3740   -3.7660    2.2630 c3        1 MOL     -0.401388
    109 C39         1.6440   -3.6590    4.0360 c3        1 MOL     -0.013632
    110 H46         0.6840   -4.3740    0.5200 hn        1 MOL      0.224326
    111 H47         2.2880   -2.0900    1.5460 h1        1 MOL      0.098963
    112 H48         3.1440   -5.0110    1.1180 hc        1 MOL     -0.019387
    113 H49         2.7650   -5.4550    3.4310 hc        1 MOL      0.031055
    114 H50         1.3000   -5.2360    2.5840 hc        1 MOL      0.031055
    115 H51         4.7720   -4.5350    2.9350 hc        1 MOL      0.114831
    116 H52         5.0530   -3.6030    1.4310 hc        1 MOL      0.114831
    117 H53         4.2910   -2.8220    2.8010 hc        1 MOL      0.114831
    118 H54         0.8170   -3.0380    3.7020 hc        1 MOL      0.009152
    119 H55         1.3680   -4.1150    4.9840 hc        1 MOL      0.009152
    120 H56         2.4180   -2.9970    4.4120 hc        1 MOL      0.009152
    121 N11         3.0070   -3.2770   -1.3010 n         1 MOL     -0.110764
    122 C40         3.3640   -2.9390   -2.6640 c3        1 MOL     -0.273804
    123 C41         4.8350   -2.8870   -2.9630 c         1 MOL      0.426785
    124 O16         5.2140   -2.0800   -3.8720 o         1 MOL     -0.487126
    125 C42         2.6800   -4.0130   -3.6230 c3        1 MOL      0.312717
    126 O17         1.3190   -4.2020   -3.4470 oh        1 MOL     -0.576350
    127 H57         2.4110   -4.0690   -1.1650 hn        1 MOL      0.174167
    128 H58         2.9820   -1.9560   -2.9150 h1        1 MOL      0.110590
    129 H59         3.2750   -4.9170   -3.4720 h1        1 MOL      0.007516
    130 H60         2.8770   -3.7160   -4.6450 h1        1 MOL      0.007516
    131 H61         0.9440   -3.3210   -3.4630 ho        1 MOL      0.376573
    132 N12         5.6680   -3.5360   -2.1380 n         1 MOL     -0.346400
    133 C43         7.1250   -3.3860   -1.9890 c3        1 MOL      0.113415
    134 C44         7.6020   -1.8940   -1.7660 c         1 MOL      0.498730
    135 O18         8.7670   -1.5450   -2.1140 o         1 MOL     -0.544428
    136 C45         7.8440   -3.9980   -3.2020 c3        1 MOL     -0.287123
    137 H62         5.1610   -4.0410   -1.4250 hn        1 MOL      0.233304
    138 H63         7.4350   -3.9040   -1.0880 h1        1 MOL      0.067642
    139 H64         8.9170   -4.0400   -3.0800 hc        1 MOL      0.089302
    140 H65         7.5500   -5.0440   -3.3240 hc        1 MOL      0.089302
    141 H66         7.6790   -3.3940   -4.1020 hc        1 MOL      0.089302
    142 N13         6.7460   -1.1170   -1.1240 n         1 MOL     -0.474174
    143 C46         6.9880    0.2720   -0.8460 c3        1 MOL      0.289556
    144 C47         7.1680    0.4850    0.6010 c         1 MOL      0.388276
    145 O19         6.5330   -0.2360    1.3960 o         1 MOL     -0.478073
    146 C48         5.7870    1.0440   -1.3620 c3        1 MOL     -0.159895
    147 H67         5.8730   -1.5710   -0.9080 hn        1 MOL      0.267398
    148 H68         7.9130    0.5870   -1.3370 h1        1 MOL     -0.006968
    149 H69         5.9010    2.1060   -1.1600 hc        1 MOL      0.049449
    150 H70         5.5980    0.9450   -2.4310 hc        1 MOL      0.049449
    151 H71         4.8620    0.6460   -0.9200 hc        1 MOL      0.049449
    152 N14         7.9610    1.4950    0.9670 n         1 MOL     -0.285634
    153 C49         8.1840    1.9360    2.3470 c3        1 MOL     -0.262080
    154 C50         8.6130    0.7540    3.3620 c         1 MOL      0.445951
    155 O20         8.5430    0.9430    4.5830 o         1 MOL     -0.494047
    156 C51         6.9310    2.6960    2.9150 c3        1 MOL      0.266454
    157 C52         6.4570    3.9510    2.1760 c3        1 MOL     -0.007461
    158 C53         5.2490    4.6600    2.7390 c         1 MOL      0.796984
    159 O21         4.6180    4.0250    3.6650 o         1 MOL     -0.776083
    160 O22         4.8810    5.7700    2.3130 o         1 MOL     -0.776083
    161 H72         8.4060    1.9250    0.1720 hn        1 MOL      0.250570
    162 H73         9.0480    2.5950    2.4120 h1        1 MOL      0.123066
    163 H74         7.0210    3.0350    3.9530 hc        1 MOL     -0.023295
    164 H75         6.0940    2.0160    2.8300 hc        1 MOL     -0.023295
    165 H76         6.2330    3.6270    1.1620 hc        1 MOL     -0.064964
    166 H77         7.2720    4.6720    2.2280 hc        1 MOL     -0.064964
    167 N15         9.1660   -0.3720    2.8490 n         1 MOL     -0.205235
    168 C54         9.5890   -1.6650    3.5040 c3        1 MOL     -0.229886
    169 H78         8.7070   -2.1970    3.8600 h1        1 MOL      0.109313
    170 H79        10.1170   -2.2840    2.7790 h1        1 MOL      0.109313
    171 H80        10.2470   -1.4490    4.3460 h1        1 MOL      0.109313
    172 H81         9.3710   -0.2990    1.8610 hn        1 MOL      0.186396
    173 Ca1         0.5210    4.8860    0.2270 Ca        1 MOL      1.736826
    174 O23         0.1580    5.0360    2.9530 oh        1 MOL     -0.806198
    175 H82         0.5360    4.2640    3.3870 ho        1 MOL      0.402985
    176 H83        -0.3540    5.4720    3.6440 ho        1 MOL      0.402985
    177 O24         2.1580    5.9290   -1.7130 oh        1 MOL     -0.806198
    178 H84         2.8990    5.4370   -2.0610 ho        1 MOL      0.402985
    179 H85         2.0150    6.6260   -2.3480 ho        1 MOL      0.402985
    180 O25         2.4140    3.4250    1.4050 oh        1 MOL     -0.806198
    181 H86         2.8180    2.5910    1.1730 ho        1 MOL      0.402985
    182 H87         2.8150    3.6740    2.2400 ho        1 MOL      0.402985
    183 O26         2.2640    6.4410    1.5430 oh        1 MOL     -0.806198
    184 H88         3.1480    6.1510    1.7760 ho        1 MOL      0.402985
    185 H89         1.7930    6.4760    2.3780 ho        1 MOL      0.402985
    186 O27        -0.8280    5.5580   -2.0300 oh        1 MOL     -0.806198
    187 H90        -1.7130    5.8970   -2.0830 ho        1 MOL      0.402985
    188 H91        -0.5260    5.5110   -2.9400 ho        1 MOL      0.402985
    189 O28        -0.1010    7.4240    0.1310 oh        1 MOL     -0.806198
    190 H92         0.3660    8.0380    0.7050 ho        1 MOL      0.402985
    191 H93        -0.6780    7.9840   -0.3990 ho        1 MOL      0.402985
@<TRIPOS>BOND
     1    1    2 1   
     2    1    4 1   
     3    1    5 1   
     4    1    6 1   
     5    2    3 2   
     6    2    7 1   
     7    7    8 1   
     8    7   15 1   
     9    8    9 1   
    10    8   11 1   
    11    8   16 1   
    12    9   10 2   
    13    9   19 1   
    14   11   12 1   
    15   11   17 1   
    16   11   18 1   
    17   12   13 1   
    18   12   14 1   
    19   19   20 1   
    20   19   28 1   
    21   20   21 1   
    22   20   23 1   
    23   20   29 1   
    24   21   22 2   
    25   21   41 1   
    26   23   24 1   
    27   23   30 1   
    28   23   31 1   
    29   24   25 1   
    30   24   32 1   
    31   24   33 1   
    32   25   26 1   
    33   25   34 1   
    34   25   35 1   
    35   26   27 1   
    36   26   36 1   
    37   26   37 1   
    38   27   38 1   
    39   27   39 1   
    40   27   40 1   
    41   41   42 1   
    42   41   49 1   
    43   42   43 1   
    44   42   45 1   
    45   42   50 1   
    46   43   44 2   
    47   43   53 1   
    48   45   46 1   
    49   45   51 1   
    50   45   52 1   
    51   46   47 1   
    52   46   48 1   
    53   53   54 1   
    54   53   57 1   
    55   54   55 1   
    56   54   58 1   
    57   54   59 1   
    58   55   56 2   
    59   55   60 1   
    60   60   61 1   
    61   60   68 1   
    62   61   62 1   
    63   61   64 1   
    64   61   69 1   
    65   62   63 2   
    66   62   74 1   
    67   64   65 1   
    68   64   70 1   
    69   64   71 1   
    70   65   66 1   
    71   65   67 2   
    72   66   72 1   
    73   66   73 1   
    74   74   75 1   
    75   74   78 1   
    76   75   76 1   
    77   75   79 1   
    78   75   80 1   
    79   76   77 2   
    80   76   81 1   
    81   81   82 1   
    82   81   93 1   
    83   82   83 1   
    84   82   85 1   
    85   82   94 1   
    86   83   84 2   
    87   83  102 1   
    88   85   86 1   
    89   85   95 1   
    90   85   96 1   
    91   86   87 ar  
    92   86   88 ar  
    93   87   89 ar  
    94   87   97 1   
    95   88   90 ar  
    96   88   98 1   
    97   89   91 ar  
    98   89   99 1   
    99   90   91 ar  
   100   90  100 1   
   101   91   92 1   
   102   92  101 1   
   103  102  103 1   
   104  102  110 1   
   105  103  104 1   
   106  103  106 1   
   107  103  111 1   
   108  104  105 2   
   109  104  121 1   
   110  106  107 1   
   111  106  108 1   
   112  106  112 1   
   113  107  109 1   
   114  107  113 1   
   115  107  114 1   
   116  108  115 1   
   117  108  116 1   
   118  108  117 1   
   119  109  118 1   
   120  109  119 1   
   121  109  120 1   
   122  121  122 1   
   123  121  127 1   
   124  122  123 1   
   125  122  125 1   
   126  122  128 1   
   127  123  124 2   
   128  123  132 1   
   129  125  126 1   
   130  125  129 1   
   131  125  130 1   
   132  126  131 1   
   133  132  133 1   
   134  132  137 1   
   135  133  134 1   
   136  133  136 1   
   137  133  138 1   
   138  134  135 2   
   139  134  142 1   
   140  136  139 1   
   141  136  140 1   
   142  136  141 1   
   143  142  143 1   
   144  142  147 1   
   145  143  144 1   
   146  143  146 1   
   147  143  148 1   
   148  144  145 2   
   149  144  152 1   
   150  146  149 1   
   151  146  150 1   
   152  146  151 1   
   153  152  153 1   
   154  152  161 1   
   155  153  154 1   
   156  153  156 1   
   157  153  162 1   
   158  154  155 2   
   159  154  167 1   
   160  156  157 1   
   161  156  163 1   
   162  156  164 1   
   163  157  158 1   
   164  157  165 1   
   165  157  166 1   
   166  158  159 1   
   167  158  160 1   
   168  167  168 1   
   169  167  172 1   
   170  168  169 1   
   171  168  170 1   
   172  168  171 1   
   173  174  175 1   
   174  174  176 1   
   175  177  178 1   
   176  177  179 1   
   177  180  181 1   
   178  180  182 1   
   179  183  184 1   
   180  183  185 1   
   181  186  187 1   
   182  186  188 1   
   183  189  190 1   
   184  189  191 1   
@<TRIPOS>SUBSTRUCTURE
     1 MOL         1 TEMP              0 ****  ****    0 ROOT
