@<TRIPOS>MOLECULE
MOL
  188   182     1     0     0
SMALL
resp


@<TRIPOS>ATOM
      1 C1          4.7540    0.1950    5.6230 c3        1 MOL     -0.358904
      2 C2          4.0300   -0.0340    4.2460 c         1 MOL      0.559302
      3 O1          2.7820    0.0170    4.1400 o         1 MOL     -0.567912
      4 H1          5.0540   -0.7660    6.0400 hc        1 MOL      0.099260
      5 H2          5.6370    0.8160    5.4710 hc        1 MOL      0.099260
      6 H3          4.0730    0.6930    6.3140 hc        1 MOL      0.099260
      7 N1          4.8590   -0.0990    3.1850 n         1 MOL     -0.444991
      8 C3          4.3000   -0.0400    1.7540 c3        1 MOL      0.105036
      9 C4          4.0160   -1.4860    1.1300 c         1 MOL      0.101819
     10 O2          2.9330   -1.8160    0.7480 o         1 MOL     -0.365839
     11 C5          5.3310    0.7850    0.9220 c3        1 MOL      0.174124
     12 C6          6.8410    0.4070    0.9150 c         1 MOL      0.578028
     13 O3          7.3210   -0.3910    1.7790 o         1 MOL     -0.635114
     14 O4          7.5030    0.7760   -0.0580 o         1 MOL     -0.635114
     15 H4          5.8550   -0.0750    3.3190 hn        1 MOL      0.222777
     16 H5          3.3590    0.5100    1.7380 h1        1 MOL      0.092075
     17 H6          5.2680    1.8410    1.1880 hc        1 MOL     -0.057050
     18 H7          4.9240    0.6940   -0.0900 hc        1 MOL     -0.057050
     19 N2          5.0700   -2.3200    1.1170 n         1 MOL      0.046643
     20 C7          5.0050   -3.7620    0.8230 c3        1 MOL      0.101187
     21 C8          5.1990   -3.9710   -0.6090 c         1 MOL      0.497983
     22 O5          6.1410   -4.6080   -1.0580 o         1 MOL     -0.562347
     23 C9          6.0250   -4.5100    1.7630 c3        1 MOL     -0.197826
     24 C10         5.6810   -4.2100    3.2400 c3        1 MOL      0.281453
     25 C11         6.3600   -5.1670    4.2700 c3        1 MOL     -0.254758
     26 C12         6.0730   -6.7050    4.2120 c3        1 MOL      0.201311
     27 N3          6.7330   -7.4870    5.2160 n4        1 MOL     -0.358746
     28 H8          5.9580   -2.0290    1.4830 hn        1 MOL      0.124116
     29 H9          3.9800   -4.1000    0.9800 h1        1 MOL      0.019914
     30 H10         7.0850   -4.3190    1.6140 hc        1 MOL      0.060097
     31 H11         5.8220   -5.5520    1.5150 hc        1 MOL      0.060097
     32 H12         4.5960   -4.3130    3.3700 hc        1 MOL     -0.047209
     33 H13         6.0060   -3.1820    3.4150 hc        1 MOL     -0.047209
     34 H14         5.9110   -4.8280    5.1990 hc        1 MOL      0.068377
     35 H15         7.4490   -5.0920    4.2830 hc        1 MOL      0.068377
     36 H16         6.4220   -7.1910    3.3150 hx        1 MOL      0.033833
     37 H17         5.0090   -6.9250    4.1970 hx        1 MOL      0.033833
     38 H18         6.4930   -7.2340    6.1630 hn        1 MOL      0.323862
     39 H19         6.7670   -8.4950    5.1180 hn        1 MOL      0.323862
     40 H20         7.6850   -7.1890    5.0590 hn        1 MOL      0.323862
     41 N4          4.3860   -3.1740   -1.2830 n         1 MOL     -0.055533
     42 C13         4.5440   -2.9940   -2.7240 c3        1 MOL     -0.039652
     43 C14         4.5930   -1.4640   -2.9730 c         1 MOL      0.714471
     44 O6          4.1580   -0.6420   -2.1740 o         1 MOL     -0.448733
     45 C15         3.4120   -3.6870   -3.5040 c3        1 MOL     -0.263165
     46 C16         2.0100   -3.0230   -3.1000 c         1 MOL      0.708949
     47 O7          1.3730   -3.5300   -2.1370 o         1 MOL     -0.674999
     48 O8          1.4970   -2.1170   -3.8000 o         1 MOL     -0.674999
     49 H21         3.8070   -2.4750   -0.8380 hn        1 MOL     -0.330238
     50 H22         5.4210   -3.5340   -3.0780 h1        1 MOL      0.078181
     51 H23         3.3370   -4.7710   -3.5010 hc        1 MOL      0.067456
     52 H24         3.5640   -3.4110   -4.5490 hc        1 MOL      0.067456
     53 N5          5.0840   -1.1350   -4.1560 n         1 MOL     -0.582209
     54 C17         5.3620    0.2640   -4.5650 c3        1 MOL      0.030245
     55 C18         6.6060    0.7720   -3.8250 c         1 MOL      0.491069
     56 O9          7.6700    0.1910   -3.8940 o         1 MOL     -0.511236
     57 H25         5.4170   -1.8300   -4.8220 hn        1 MOL      0.356911
     58 H26         4.5080    0.8950   -4.2810 h1        1 MOL      0.054438
     59 H27         5.4320    0.2570   -5.6500 h1        1 MOL      0.054438
     60 N6          6.4760    1.9100   -3.0930 n         1 MOL     -0.378443
     61 C19         5.3800    2.8910   -3.0240 c3        1 MOL      0.035366
     62 C20         5.6320    3.7920   -1.7680 c         1 MOL      0.353716
     63 O10         6.6640    4.4850   -1.6440 o         1 MOL     -0.468333
     64 C21         5.4560    3.8030   -4.2630 c3        1 MOL     -0.315647
     65 C22         4.5750    5.1370   -4.1730 c         1 MOL      0.641729
     66 N7          3.3280    4.8810   -4.0240 n         1 MOL     -0.745409
     67 O11         5.0940    6.2220   -4.1600 o         1 MOL     -0.503790
     68 H28         7.4010    2.0870   -2.7050 hn        1 MOL      0.329338
     69 H29         4.4090    2.4010   -3.0680 h1        1 MOL      0.090915
     70 H30         5.0990    3.1320   -5.0470 hc        1 MOL      0.093471
     71 H31         6.5190    4.0160   -4.3810 hc        1 MOL      0.093471
     72 H32         3.0380    3.9290   -4.1680 hn        1 MOL      0.350165
     73 H33         2.6900    5.6340   -4.2610 hn        1 MOL      0.350165
     74 N8          4.6280    4.0300   -0.9390 n         1 MOL     -0.194265
     75 C23         3.2980    3.4510   -0.8730 c3        1 MOL     -0.052303
     76 C24         2.3750    4.2730    0.0140 c         1 MOL      0.562800
     77 O12         2.8660    5.1660    0.7600 o         1 MOL     -0.502955
     78 H34         4.9550    4.6260   -0.2000 hn        1 MOL      0.246228
     79 H35         3.3940    2.4200   -0.5340 h1        1 MOL      0.016221
     80 H36         2.7990    3.3520   -1.8330 h1        1 MOL      0.016221
     81 N9          1.0780    3.9150   -0.0790 n         1 MOL     -0.424722
     82 C25        -0.0330    4.4280    0.6690 c3        1 MOL      0.036224
     83 C26        -1.2460    3.4200    0.6160 c         1 MOL      0.646953
     84 O13        -1.4990    2.7590   -0.3730 o         1 MOL     -0.514811
     85 C27        -0.4670    5.8480    0.2160 c3        1 MOL     -0.380724
     86 C28        -1.2690    6.5310    1.2660 ca        1 MOL      0.202322
     87 C29        -2.6280    6.6830    1.2100 ca        1 MOL     -0.228600
     88 C30        -0.5100    7.0070    2.4010 ca        1 MOL     -0.228600
     89 C31        -3.2840    7.4350    2.2010 ca        1 MOL     -0.190385
     90 C32        -1.1630    7.6140    3.4950 ca        1 MOL     -0.190385
     91 C33        -2.5660    7.7570    3.4100 ca        1 MOL      0.245174
     92 O14        -3.3310    8.2570    4.4780 oh        1 MOL     -0.482109
     93 H37         0.8940    3.1370   -0.6930 hn        1 MOL      0.248052
     94 H38         0.2830    4.4710    1.7130 h1        1 MOL      0.059907
     95 H39        -1.0660    5.8300   -0.6970 hc        1 MOL      0.150159
     96 H40         0.3940    6.5030    0.0930 hc        1 MOL      0.150159
     97 H41        -3.2120    6.2120    0.4360 ha        1 MOL      0.154658
     98 H42         0.5590    6.8630    2.3710 ha        1 MOL      0.154658
     99 H43        -4.3650    7.4180    2.1430 ha        1 MOL      0.138246
    100 H44        -0.5990    7.9570    4.3490 ha        1 MOL      0.138246
    101 H45        -2.7120    8.2230    5.2210 ho        1 MOL      0.357440
    102 N10        -1.9400    3.2120    1.7440 n         1 MOL     -0.538255
    103 C34        -3.2870    2.5540    1.8000 c3        1 MOL     -0.238999
    104 C35        -4.2330    2.9540    0.6060 c         1 MOL      0.729942
    105 O15        -4.2220    4.0920    0.1640 o         1 MOL     -0.533309
    106 C36        -4.0800    2.8190    3.0680 c3        1 MOL      0.132008
    107 C37        -3.5260    1.9960    4.2910 c3        1 MOL     -0.006232
    108 C38        -4.1230    4.3260    3.4210 c3        1 MOL     -0.075575
    109 C39        -4.3910    1.7640    5.5280 c3        1 MOL     -0.189815
    110 H46        -1.7160    3.8010    2.5260 hn        1 MOL      0.318929
    111 H47        -3.1890    1.4760    1.6810 h1        1 MOL      0.133594
    112 H48        -5.1060    2.5430    2.8650 hc        1 MOL     -0.012600
    113 H49        -2.5450    2.4450    4.4800 hc        1 MOL      0.016185
    114 H50        -3.2860    1.0050    3.9090 hc        1 MOL      0.016185
    115 H51        -4.4790    4.9250    2.5810 hc        1 MOL      0.027721
    116 H52        -4.8330    4.5410    4.2340 hc        1 MOL      0.027721
    117 H53        -3.1060    4.6140    3.6720 hc        1 MOL      0.027721
    118 H54        -5.3390    1.2820    5.2830 hc        1 MOL      0.057104
    119 H55        -3.8760    1.0420    6.1560 hc        1 MOL      0.057104
    120 H56        -4.5590    2.6780    6.0990 hc        1 MOL      0.057104
    121 N11        -4.9610    2.0290    0.0450 n         1 MOL     -0.480751
    122 C40        -5.8730    2.1690   -1.1150 c3        1 MOL      0.019632
    123 C41        -6.1360    0.7690   -1.6150 c         1 MOL      0.542757
    124 O16        -6.2380   -0.1840   -0.8670 o         1 MOL     -0.506476
    125 C42        -7.1980    2.8260   -0.7230 c3        1 MOL      0.116660
    126 O17        -7.1070    4.1150   -1.2560 oh        1 MOL     -0.605365
    127 H57        -4.8420    1.1030    0.4400 hn        1 MOL      0.230227
    128 H58        -5.3760    2.7850   -1.8670 h1        1 MOL      0.089330
    129 H59        -7.3240    2.9020    0.3560 h1        1 MOL      0.057915
    130 H60        -8.0450    2.3250   -1.1950 h1        1 MOL      0.057915
    131 H61        -6.7860    4.7610   -0.6160 ho        1 MOL      0.413208
    132 N12        -6.3860    0.6330   -2.9180 n         1 MOL     -0.453844
    133 C43        -6.3700   -0.5680   -3.7800 c3        1 MOL     -0.015155
    134 C44        -7.2990   -1.7520   -3.2010 c         1 MOL      0.423467
    135 O18        -7.0060   -2.9070   -3.5380 o         1 MOL     -0.433516
    136 C45        -4.9250   -1.0060   -3.9700 c3        1 MOL     -0.179422
    137 H62        -6.3950    1.5000   -3.4320 hn        1 MOL      0.308756
    138 H63        -6.8490   -0.1800   -4.6750 h1        1 MOL      0.118615
    139 H64        -4.5560   -1.5320   -3.0990 hc        1 MOL      0.082325
    140 H65        -4.7640   -1.5560   -4.9040 hc        1 MOL      0.082325
    141 H66        -4.3120   -0.1110   -4.1140 hc        1 MOL      0.082325
    142 N13        -8.4320   -1.5030   -2.5330 n         1 MOL     -0.451622
    143 C46        -9.2320   -2.4740   -1.7710 c3        1 MOL      0.498594
    144 C47        -8.3210   -3.5880   -1.1000 c         1 MOL      0.108316
    145 O19        -8.6510   -4.7680   -1.2420 o         1 MOL     -0.418464
    146 C48       -10.4900   -2.9840   -2.5760 c3        1 MOL     -0.435214
    147 H67        -8.7790   -0.5550   -2.4080 hn        1 MOL      0.235566
    148 H68        -9.6080   -1.9350   -0.9060 h1        1 MOL     -0.033532
    149 H69       -11.0180   -2.1140   -2.9450 hc        1 MOL      0.113239
    150 H70       -10.1490   -3.5400   -3.4510 hc        1 MOL      0.113239
    151 H71       -11.2500   -3.4130   -1.9370 hc        1 MOL      0.113239
    152 N14        -7.0810   -3.2520   -0.6750 n         1 MOL     -0.005503
    153 C49        -6.0620   -4.2600   -0.2990 c3        1 MOL     -0.285892
    154 C50        -6.5370   -4.8150    1.0740 c         1 MOL      0.513018
    155 O20        -6.7240   -5.9940    1.2160 o         1 MOL     -0.523415
    156 C51        -4.6770   -3.5920   -0.1210 c3        1 MOL      0.292974
    157 C52        -3.6600   -4.6750    0.0040 c3        1 MOL     -0.163171
    158 C53        -2.2490   -4.0640    0.1480 c         1 MOL      0.658963
    159 O21        -1.4270   -4.2540   -0.8440 o         1 MOL     -0.757140
    160 O22        -1.9160   -3.3460    1.0870 o         1 MOL     -0.757140
    161 H72        -6.9540   -2.2430   -0.6150 hn        1 MOL      0.083149
    162 H73        -6.0080   -5.0730   -1.0360 h1        1 MOL      0.189359
    163 H74        -4.7100   -2.9640    0.7630 hc        1 MOL     -0.056345
    164 H75        -4.4840   -2.9640   -0.9930 hc        1 MOL     -0.056345
    165 H76        -3.6970   -5.3800   -0.8320 hc        1 MOL      0.035586
    166 H77        -3.8260   -5.2450    0.9200 hc        1 MOL      0.035586
    167 N15        -6.9170   -3.9890    2.0250 n         1 MOL     -0.136483
    168 C54        -7.3420   -4.2120    3.3900 c3        1 MOL     -0.481316
    169 H78        -6.6260   -4.8640    3.8910 h1        1 MOL      0.163349
    170 H79        -7.3930   -3.2580    3.9150 h1        1 MOL      0.163349
    171 H80        -8.3250   -4.6820    3.3920 h1        1 MOL      0.163349
    172 H81        -6.9810   -2.9980    1.8320 hn        1 MOL      0.188870
    173 Ca1         0.3670   -2.4960    0.1150 Ca        1 MOL      1.752450
    174 O23         1.5690   -0.4150   -1.1930 oh        1 MOL     -0.786022
    175 H82         1.2220    0.3820   -1.5830 ho        1 MOL      0.389898
    176 H83         2.5180   -0.3570   -1.3360 ho        1 MOL      0.389898
    177 O24         0.9080   -3.0760    2.6930 oh        1 MOL     -0.786022
    178 H84         1.3260   -2.5730    3.3910 ho        1 MOL      0.389898
    179 H85         1.0240   -3.9850    2.9610 ho        1 MOL      0.389898
    180 O25        -1.5650   -1.2220   -1.4620 oh        1 MOL     -0.786022
    181 H86        -1.7890   -1.8020   -2.1850 ho        1 MOL      0.389898
    182 H87        -2.3040   -0.6120   -1.4080 ho        1 MOL      0.389898
    183 O26        -0.4230   -0.3150    1.5440 oh        1 MOL     -0.786022
    184 H88        -0.0650    0.5330    1.8170 ho        1 MOL      0.389898
    185 H89        -1.3260   -0.2990    1.8690 ho        1 MOL      0.389898
    186 O27         1.7470   -4.7240    0.3780 oh        1 MOL     -0.786022
    187 H90         1.5030   -5.4580    0.9400 ho        1 MOL      0.389898
    188 H91         1.8460   -5.1180   -0.4910 ho        1 MOL      0.389898
@<TRIPOS>BOND
     1    1    2 1   
     2    1    4 1   
     3    1    5 1   
     4    1    6 1   
     5    2    3 2   
     6    2    7 1   
     7    7    8 1   
     8    7   15 1   
     9    8    9 1   
    10    8   11 1   
    11    8   16 1   
    12    9   10 2   
    13    9   19 1   
    14   11   12 1   
    15   11   17 1   
    16   11   18 1   
    17   12   13 1   
    18   12   14 1   
    19   19   20 1   
    20   19   28 1   
    21   20   21 1   
    22   20   23 1   
    23   20   29 1   
    24   21   22 2   
    25   21   41 1   
    26   23   24 1   
    27   23   30 1   
    28   23   31 1   
    29   24   25 1   
    30   24   32 1   
    31   24   33 1   
    32   25   26 1   
    33   25   34 1   
    34   25   35 1   
    35   26   27 1   
    36   26   36 1   
    37   26   37 1   
    38   27   38 1   
    39   27   39 1   
    40   27   40 1   
    41   41   42 1   
    42   41   49 1   
    43   42   43 1   
    44   42   45 1   
    45   42   50 1   
    46   43   44 2   
    47   43   53 1   
    48   45   46 1   
    49   45   51 1   
    50   45   52 1   
    51   46   47 1   
    52   46   48 1   
    53   53   54 1   
    54   53   57 1   
    55   54   55 1   
    56   54   58 1   
    57   54   59 1   
    58   55   56 2   
    59   55   60 1   
    60   60   61 1   
    61   60   68 1   
    62   61   62 1   
    63   61   64 1   
    64   61   69 1   
    65   62   63 2   
    66   62   74 1   
    67   64   65 1   
    68   64   70 1   
    69   64   71 1   
    70   65   66 1   
    71   65   67 2   
    72   66   72 1   
    73   66   73 1   
    74   74   75 1   
    75   74   78 1   
    76   75   76 1   
    77   75   79 1   
    78   75   80 1   
    79   76   77 2   
    80   76   81 1   
    81   81   82 1   
    82   81   93 1   
    83   82   83 1   
    84   82   85 1   
    85   82   94 1   
    86   83   84 2   
    87   83  102 1   
    88   85   86 1   
    89   85   95 1   
    90   85   96 1   
    91   86   87 ar  
    92   86   88 ar  
    93   87   89 ar  
    94   87   97 1   
    95   88   90 ar  
    96   88   98 1   
    97   89   91 ar  
    98   89   99 1   
    99   90   91 ar  
   100   90  100 1   
   101   91   92 1   
   102   92  101 1   
   103  102  103 1   
   104  102  110 1   
   105  103  104 1   
   106  103  106 1   
   107  103  111 1   
   108  104  105 2   
   109  104  121 1   
   110  106  107 1   
   111  106  108 1   
   112  106  112 1   
   113  107  109 1   
   114  107  113 1   
   115  107  114 1   
   116  108  115 1   
   117  108  116 1   
   118  108  117 1   
   119  109  118 1   
   120  109  119 1   
   121  109  120 1   
   122  121  122 1   
   123  121  127 1   
   124  122  123 1   
   125  122  125 1   
   126  122  128 1   
   127  123  124 2   
   128  123  132 1   
   129  125  126 1   
   130  125  129 1   
   131  125  130 1   
   132  126  131 1   
   133  132  133 1   
   134  132  137 1   
   135  133  134 1   
   136  133  136 1   
   137  133  138 1   
   138  134  135 2   
   139  134  142 1   
   140  136  139 1   
   141  136  140 1   
   142  136  141 1   
   143  142  143 1   
   144  142  147 1   
   145  143  144 1   
   146  143  146 1   
   147  143  148 1   
   148  144  145 2   
   149  144  152 1   
   150  146  149 1   
   151  146  150 1   
   152  146  151 1   
   153  152  153 1   
   154  152  161 1   
   155  153  154 1   
   156  153  156 1   
   157  153  162 1   
   158  154  155 2   
   159  154  167 1   
   160  156  157 1   
   161  156  163 1   
   162  156  164 1   
   163  157  158 1   
   164  157  165 1   
   165  157  166 1   
   166  158  159 1   
   167  158  160 1   
   168  167  168 1   
   169  167  172 1   
   170  168  169 1   
   171  168  170 1   
   172  168  171 1   
   173  174  175 1   
   174  174  176 1   
   175  177  178 1   
   176  177  179 1   
   177  180  181 1   
   178  180  182 1   
   179  183  184 1   
   180  183  185 1   
   181  186  187 1   
   182  186  188 1   
@<TRIPOS>SUBSTRUCTURE
     1 MOL         1 TEMP              0 ****  ****    0 ROOT
