@<TRIPOS>MOLECULE
MOL
  198   191     1     0     0
SMALL
resp


@<TRIPOS>ATOM
      1 C1          4.8740   -2.8430   -1.8900 c3        1 MOL     -0.124432
      2 C2          4.0980   -3.7340   -0.9180 c         1 MOL      0.906496
      3 O1          3.3410   -3.1760   -0.1510 o         1 MOL     -0.586311
      4 H1          4.6900   -3.1750   -2.9120 hc        1 MOL     -0.011596
      5 H2          4.5430   -1.8100   -1.7800 hc        1 MOL     -0.011596
      6 H3          5.9400   -2.9100   -1.6730 hc        1 MOL     -0.011596
      7 N1          4.3120   -5.0900   -0.9230 n         1 MOL     -0.557759
      8 C3          3.5520   -6.0100   -0.0020 c3        1 MOL      0.130378
      9 C4          2.0030   -5.9580   -0.1770 c         1 MOL      0.646283
     10 O2          1.2990   -6.3300    0.7000 o         1 MOL     -0.506856
     11 C5          3.9680   -5.8080    1.4930 c3        1 MOL     -0.456843
     12 C6          5.5100   -5.6430    1.6610 c         1 MOL      0.881981
     13 O3          6.2280   -6.3430    1.0140 o         1 MOL     -0.734698
     14 O4          5.9240   -4.9030    2.5510 o         1 MOL     -0.734698
     15 H4          5.0870   -5.4800   -1.4500 hn        1 MOL      0.225488
     16 H5          3.8520   -7.0340   -0.2190 h1        1 MOL      0.057861
     17 H6          3.5910   -6.6860    2.0060 hc        1 MOL      0.125716
     18 H7          3.4660   -4.8970    1.8180 hc        1 MOL      0.125716
     19 N2          1.5370   -5.6200   -1.4020 n         1 MOL     -0.636555
     20 C7          0.0400   -5.5970   -1.7190 c3        1 MOL      0.017038
     21 C8         -0.6940   -6.9010   -1.5280 c         1 MOL      0.573715
     22 O5         -0.0930   -7.9160   -1.7020 o         1 MOL     -0.566203
     23 C9         -0.1680   -5.1400   -3.1430 c3        1 MOL      0.220524
     24 C10         0.4920   -6.0150   -4.2450 c3        1 MOL      0.131989
     25 C11         0.2310   -3.6130   -3.2200 c3        1 MOL     -0.142681
     26 C12        -0.2200   -5.9170   -5.6580 c3        1 MOL     -0.271699
     27 H8          2.2610   -5.3580   -2.0640 hn        1 MOL      0.199585
     28 H9         -0.4060   -4.8320   -1.0810 h1        1 MOL      0.113681
     29 H10        -1.2390   -5.1380   -3.3710 hc        1 MOL      0.002796
     30 H11         0.5150   -7.0870   -4.0370 hc        1 MOL     -0.020717
     31 H12         1.5350   -5.7020   -4.2930 hc        1 MOL     -0.020717
     32 H13        -0.3400   -3.0230   -2.5090 hc        1 MOL      0.017771
     33 H14         1.2950   -3.4550   -3.0830 hc        1 MOL      0.017771
     34 H15        -0.0520   -3.3400   -4.2380 hc        1 MOL      0.017771
     35 H16        -1.2200   -6.3350   -5.5260 hc        1 MOL      0.051743
     36 H17        -0.2380   -4.8950   -6.0360 hc        1 MOL      0.051743
     37 H18         0.3990   -6.5200   -6.3190 hc        1 MOL      0.051743
     38 N3         -1.9680   -6.8770   -1.1500 n         1 MOL     -0.499674
     39 C13        -2.8560   -5.7730   -0.6390 c3        1 MOL     -0.034766
     40 C14        -3.1560   -6.0680    0.8340 c         1 MOL      0.634241
     41 O6         -3.3830   -7.2190    1.2050 o         1 MOL     -0.557805
     42 C15        -4.1370   -5.6570   -1.5250 c3        1 MOL     -0.216010
     43 C16        -4.9340   -4.3470   -1.1930 c         1 MOL      0.726961
     44 O7         -5.9870   -4.2210   -1.8190 o         1 MOL     -0.702107
     45 O8         -4.5870   -3.5240   -0.3520 o         1 MOL     -0.702107
     46 H19        -2.3650   -7.7870   -0.9900 hn        1 MOL      0.289961
     47 H20        -2.2930   -4.8530   -0.7500 h1        1 MOL      0.049101
     48 H21        -4.7990   -6.5230   -1.4370 hc        1 MOL      0.058022
     49 H22        -3.8400   -5.6510   -2.5760 hc        1 MOL      0.058022
     50 N4         -3.0530   -5.1020    1.7220 n         1 MOL     -0.447518
     51 C17        -3.4570   -5.2920    3.1390 c3        1 MOL     -0.054148
     52 C18        -4.5180   -4.2800    3.6290 c         1 MOL      0.609009
     53 O9         -4.6690   -4.2220    4.8370 o         1 MOL     -0.606217
     54 H23        -2.7590   -4.1780    1.4440 hn        1 MOL      0.317082
     55 H24        -2.7010   -5.0340    3.8780 h1        1 MOL      0.073367
     56 H25        -3.7360   -6.3440    3.2380 h1        1 MOL      0.073367
     57 N5         -5.2180   -3.5940    2.7500 n         1 MOL     -0.492214
     58 C19        -6.2760   -2.5640    3.1920 c3        1 MOL      0.046645
     59 C20        -7.1340   -2.0350    2.0240 c         1 MOL      0.377300
     60 O10        -8.2130   -1.5280    2.3080 o         1 MOL     -0.559492
     61 C21        -5.6940   -1.3780    3.8550 c3        1 MOL      0.037120
     62 C22        -4.5100   -0.8320    3.1280 c         1 MOL      0.543588
     63 O11        -4.5830    0.1130    2.2920 o         1 MOL     -0.601651
     64 O12        -3.4550   -1.4570    3.3810 o         1 MOL     -0.601651
     65 H26        -4.9840   -3.7920    1.7960 hn        1 MOL      0.246320
     66 H27        -7.0010   -3.0510    3.8540 h1        1 MOL      0.073439
     67 H28        -5.5410   -1.6660    4.8910 hc        1 MOL     -0.008218
     68 H29        -6.4340   -0.5890    3.9420 hc        1 MOL     -0.008218
     69 N6         -6.7000   -2.0410    0.7460 n         1 MOL     -0.158999
     70 C23        -7.6140   -1.6480   -0.4140 c3        1 MOL     -0.259116
     71 C24        -7.7600   -0.1290   -0.6240 c         1 MOL      0.664603
     72 O13        -8.6870    0.2400   -1.3530 o         1 MOL     -0.600451
     73 H30        -5.8160   -2.4420    0.4660 hn        1 MOL      0.297476
     74 H31        -8.5940   -2.1010   -0.2700 h1        1 MOL      0.117556
     75 H32        -7.2960   -2.1130   -1.3420 h1        1 MOL      0.117556
     76 N7         -6.8920    0.6630    0.0630 n         1 MOL     -0.312137
     77 C25        -6.9520    2.1220    0.3900 c3        1 MOL      0.021850
     78 C26        -7.0260    3.0620   -0.8960 c         1 MOL      0.554890
     79 O14        -7.5730    4.1900   -0.8940 o         1 MOL     -0.514207
     80 C27        -8.1350    2.5160    1.2940 c3        1 MOL      0.104452
     81 C28        -7.9280    1.7440    2.6200 c3        1 MOL     -0.107966
     82 C29        -7.9240    2.5390    3.8900 c         1 MOL      0.565872
     83 N8         -7.9320    1.9040    5.0200 n         1 MOL     -0.753039
     84 O15        -7.8350    3.7680    3.8820 o         1 MOL     -0.550893
     85 H33        -6.2050    0.1920    0.6370 hn        1 MOL      0.125417
     86 H34        -6.0030    2.3120    0.8860 h1        1 MOL      0.101144
     87 H35        -9.0570    2.1890    0.8050 hc        1 MOL     -0.021870
     88 H36        -8.1590    3.5900    1.4770 hc        1 MOL     -0.021870
     89 H37        -6.9980    1.1730    2.5490 hc        1 MOL      0.030182
     90 H38        -8.7000    0.9690    2.6730 hc        1 MOL      0.030182
     91 H39        -7.9670    0.8940    5.0150 hn        1 MOL      0.343561
     92 H40        -7.9120    2.3440    5.9220 hn        1 MOL      0.343561
     93 N9         -6.3670    2.6440   -2.0030 n         1 MOL     -0.414353
     94 C30        -6.0860    3.5340   -3.1180 c3        1 MOL     -0.384621
     95 C31        -4.6050    3.6060   -3.4120 c         1 MOL      0.730144
     96 O16        -4.1390    4.4620   -4.1260 o         1 MOL     -0.600962
     97 C32        -6.8600    3.1170   -4.4370 c3        1 MOL      0.335367
     98 C33        -6.4800    1.7450   -4.9480 c3        1 MOL     -0.268715
     99 C34        -8.3840    3.0270   -4.2810 c3        1 MOL     -0.268715
    100 H41        -6.0020    1.7070   -2.1010 hn        1 MOL      0.226004
    101 H42        -6.3930    4.5020   -2.7230 h1        1 MOL      0.184187
    102 H43        -6.7180    3.8090   -5.2650 hc        1 MOL     -0.032371
    103 H44        -6.5260    0.9050   -4.2520 hc        1 MOL      0.061846
    104 H45        -7.1550    1.5130   -5.7770 hc        1 MOL      0.061846
    105 H46        -5.5040    1.6930   -5.4150 hc        1 MOL      0.061846
    106 H47        -8.7610    4.0060   -3.9850 hc        1 MOL      0.061846
    107 H48        -8.9490    2.7630   -5.1710 hc        1 MOL      0.061846
    108 H49        -8.4950    2.2460   -3.5230 hc        1 MOL      0.061846
    109 N10        -3.8090    2.6340   -2.9820 n         1 MOL     -0.508241
    110 C35        -2.4060    2.5990   -2.9190 c3        1 MOL      0.379903
    111 C36        -1.9250    2.6290   -1.4860 c         1 MOL      0.482395
    112 O17        -2.6840    2.4310   -0.5470 o         1 MOL     -0.514849
    113 C37        -1.9120    1.4400   -3.7180 c3        1 MOL     -0.359616
    114 C38        -0.3730    1.4550   -3.7890 c         1 MOL      0.643294
    115 N11         0.4020    0.6890   -3.0640 n         1 MOL     -0.758464
    116 O18         0.1730    2.2340   -4.5640 o         1 MOL     -0.551763
    117 H50        -4.2200    1.8280   -2.5320 hn        1 MOL      0.273124
    118 H51        -2.0690    3.5150   -3.4130 h1        1 MOL      0.014606
    119 H52        -2.3620    1.6090   -4.7030 hc        1 MOL      0.096752
    120 H53        -2.2750    0.4870   -3.3230 hc        1 MOL      0.096752
    121 H54         0.0000   -0.0500   -2.5000 hn        1 MOL      0.360767
    122 H55         1.4060    0.7650   -3.1330 hn        1 MOL      0.360767
    123 N12        -0.6370    2.8510   -1.3020 n         1 MOL     -0.521178
    124 C39         0.0470    3.2740   -0.0810 c3        1 MOL      0.228260
    125 C40         1.2290    4.1540   -0.4610 c         1 MOL      0.596136
    126 O19         2.0860    3.8900   -1.3550 o         1 MOL     -0.519344
    127 C41         0.5790    2.0470    0.7170 c3        1 MOL     -0.161250
    128 C42         0.8220    2.4500    2.1460 ca        1 MOL     -0.063800
    129 C43         2.1660    2.6600    2.5460 ca        1 MOL     -0.020495
    130 C44        -0.1930    2.6110    3.0520 ca        1 MOL     -0.020495
    131 C45         2.5190    3.0550    3.8390 ca        1 MOL     -0.401183
    132 C46         0.1280    3.0140    4.3710 ca        1 MOL     -0.401183
    133 C47         1.4470    3.2300    4.7170 ca        1 MOL      0.459941
    134 O20         1.6760    3.6870    5.9560 oh        1 MOL     -0.501849
    135 H56        -0.1330    2.7800   -2.1720 hn        1 MOL      0.200610
    136 H57        -0.5590    3.9360    0.5310 h1        1 MOL      0.050415
    137 H58         1.5590    1.7330    0.3570 hc        1 MOL      0.105091
    138 H59        -0.1260    1.2290    0.6380 hc        1 MOL      0.105091
    139 H60         2.9620    2.3240    1.9050 ha        1 MOL      0.132455
    140 H61        -1.2340    2.5680    2.7610 ha        1 MOL      0.132455
    141 H62         3.5190    3.2560    4.1800 ha        1 MOL      0.186758
    142 H63        -0.7380    3.2250    4.9890 ha        1 MOL      0.186758
    143 H64         2.6360    3.7280    6.0590 ho        1 MOL      0.338710
    144 N13         1.4200    5.2050    0.3480 n         1 MOL     -0.736574
    145 C48         2.6160    6.1330    0.2730 c3        1 MOL      0.185157
    146 C49         3.7260    5.6860    1.3370 c         1 MOL      0.586173
    147 O21         3.6340    6.1280    2.4980 o         1 MOL     -0.538259
    148 C50         2.0170    7.5840    0.3730 c3        1 MOL      0.065075
    149 C51         3.0800    8.6700    0.1700 c3        1 MOL     -0.179899
    150 C52         2.6450   10.0930    0.4860 c         1 MOL      0.733209
    151 O22         2.6560   10.3940    1.7020 o         1 MOL     -0.696094
    152 O23         2.3240   10.8310   -0.4160 o         1 MOL     -0.696094
    153 H65         0.8770    5.2250    1.1980 hn        1 MOL      0.366449
    154 H66         3.0560    6.0440   -0.7250 h1        1 MOL      0.067326
    155 H67         1.5430    7.6440    1.3610 hc        1 MOL      0.013822
    156 H68         1.2230    7.7700   -0.3550 hc        1 MOL      0.013822
    157 H69         3.3080    8.7350   -0.8920 hc        1 MOL     -0.003244
    158 H70         3.9280    8.3340    0.7610 hc        1 MOL     -0.003244
    159 N14         4.7190    4.8080    1.0400 n         1 MOL     -0.426677
    160 C53         5.0140    4.0680   -0.1930 c3        1 MOL     -0.449241
    161 C54         5.2870    5.0550   -1.3470 c         1 MOL      0.752341
    162 O24         6.0470    6.0160   -1.2460 o         1 MOL     -0.554303
    163 C55         6.3010    3.2520    0.1140 c3        1 MOL      0.498036
    164 C56         6.6240    2.2390   -1.0010 c3        1 MOL     -0.282305
    165 C57         7.4340    1.0810   -0.4870 c         1 MOL      0.620525
    166 O25         6.7880    0.1230    0.0310 o         1 MOL     -0.736414
    167 O26         8.7110    1.0270   -0.5580 o         1 MOL     -0.736414
    168 H71         5.3510    4.6520    1.8120 hn        1 MOL      0.232290
    169 H72         4.1350    3.4520   -0.3730 h1        1 MOL      0.106822
    170 H73         6.2740    2.7330    1.0730 hc        1 MOL     -0.039876
    171 H74         7.0980    3.9760    0.2880 hc        1 MOL     -0.039876
    172 H75         7.1440    2.7250   -1.8300 hc        1 MOL      0.047406
    173 H76         5.7070    1.8620   -1.4570 hc        1 MOL      0.047406
    174 N15         4.6190    4.8080   -2.5350 n         1 MOL     -0.416752
    175 C58         4.8380    5.5110   -3.8250 c3        1 MOL     -0.174498
    176 H77         4.5170    4.8700   -4.6470 h1        1 MOL      0.084684
    177 H78         4.2590    6.4350   -3.8390 h1        1 MOL      0.084684
    178 H79         5.8970    5.7430   -3.9390 h1        1 MOL      0.084684
    179 H80         3.7670    4.2720   -2.5720 hn        1 MOL      0.291008
    180 Ca1         8.9040   -1.5390    0.1800 Ca        1 MOL      1.762892
    181 O27         7.9510   -4.5230    0.1030 oh        1 MOL     -0.858505
    182 H81         8.1970   -5.0010   -0.6820 ho        1 MOL      0.400023
    183 H82         7.2900   -5.0660    0.5230 ho        1 MOL      0.400023
    184 O28        11.4150   -0.6390    0.7020 oh        1 MOL     -0.858505
    185 H83        11.6770   -0.2650    1.5440 ho        1 MOL      0.400023
    186 H84        12.2270   -0.6660    0.1990 ho        1 MOL      0.400023
    187 O29        10.1310   -3.4060    1.6140 oh        1 MOL     -0.858505
    188 H85         9.9390   -4.2820    1.2890 ho        1 MOL      0.400023
    189 H86        10.5590   -3.5590    2.4660 ho        1 MOL      0.400023
    190 O30        10.5620   -2.5520   -1.6180 oh        1 MOL     -0.858505
    191 H87        11.1230   -3.2490   -1.2840 ho        1 MOL      0.400023
    192 H88        10.8170   -2.4390   -2.5280 ho        1 MOL      0.400023
    193 O31         8.8000   -0.3790    2.5040 oh        1 MOL     -0.858505
    194 H89         9.4940   -0.2150    3.1510 ho        1 MOL      0.400023
    195 H90         8.0510    0.1070    2.8290 ho        1 MOL      0.400023
    196 O32         6.6310   -2.4050    1.6330 oh        1 MOL     -0.858505
    197 H91         6.8970   -2.0790    2.4940 ho        1 MOL      0.400023
    198 H92         6.4540   -3.3270    1.7680 ho        1 MOL      0.400023
@<TRIPOS>BOND
     1    1    2 1   
     2    1    4 1   
     3    1    5 1   
     4    1    6 1   
     5    2    3 2   
     6    2    7 1   
     7    7    8 1   
     8    7   15 1   
     9    8    9 1   
    10    8   11 1   
    11    8   16 1   
    12    9   10 2   
    13    9   19 1   
    14   11   12 1   
    15   11   17 1   
    16   11   18 1   
    17   12   13 1   
    18   12   14 1   
    19   19   20 1   
    20   19   27 1   
    21   20   21 1   
    22   20   23 1   
    23   20   28 1   
    24   21   22 2   
    25   21   38 1   
    26   23   24 1   
    27   23   25 1   
    28   23   29 1   
    29   24   26 1   
    30   24   30 1   
    31   24   31 1   
    32   25   32 1   
    33   25   33 1   
    34   25   34 1   
    35   26   35 1   
    36   26   36 1   
    37   26   37 1   
    38   38   39 1   
    39   38   46 1   
    40   39   40 1   
    41   39   42 1   
    42   39   47 1   
    43   40   41 2   
    44   40   50 1   
    45   42   43 1   
    46   42   48 1   
    47   42   49 1   
    48   43   44 1   
    49   43   45 1   
    50   50   51 1   
    51   50   54 1   
    52   51   52 1   
    53   51   55 1   
    54   51   56 1   
    55   52   53 2   
    56   52   57 1   
    57   57   58 1   
    58   57   65 1   
    59   58   59 1   
    60   58   61 1   
    61   58   66 1   
    62   59   60 2   
    63   59   69 1   
    64   61   62 1   
    65   61   67 1   
    66   61   68 1   
    67   62   63 1   
    68   62   64 1   
    69   69   70 1   
    70   69   73 1   
    71   70   71 1   
    72   70   74 1   
    73   70   75 1   
    74   71   72 2   
    75   71   76 1   
    76   76   77 1   
    77   76   85 1   
    78   77   78 1   
    79   77   80 1   
    80   77   86 1   
    81   78   79 2   
    82   78   93 1   
    83   80   81 1   
    84   80   87 1   
    85   80   88 1   
    86   81   82 1   
    87   81   89 1   
    88   81   90 1   
    89   82   83 1   
    90   82   84 2   
    91   83   91 1   
    92   83   92 1   
    93   93   94 1   
    94   93  100 1   
    95   94   95 1   
    96   94   97 1   
    97   94  101 1   
    98   95   96 2   
    99   95  109 1   
   100   97   98 1   
   101   97   99 1   
   102   97  102 1   
   103   98  103 1   
   104   98  104 1   
   105   98  105 1   
   106   99  106 1   
   107   99  107 1   
   108   99  108 1   
   109  109  110 1   
   110  109  117 1   
   111  110  111 1   
   112  110  113 1   
   113  110  118 1   
   114  111  112 2   
   115  111  123 1   
   116  113  114 1   
   117  113  119 1   
   118  113  120 1   
   119  114  115 1   
   120  114  116 2   
   121  115  121 1   
   122  115  122 1   
   123  123  124 1   
   124  123  135 1   
   125  124  125 1   
   126  124  127 1   
   127  124  136 1   
   128  125  126 2   
   129  125  144 1   
   130  127  128 1   
   131  127  137 1   
   132  127  138 1   
   133  128  129 ar  
   134  128  130 ar  
   135  129  131 ar  
   136  129  139 1   
   137  130  132 ar  
   138  130  140 1   
   139  131  133 ar  
   140  131  141 1   
   141  132  133 ar  
   142  132  142 1   
   143  133  134 1   
   144  134  143 1   
   145  144  145 1   
   146  144  153 1   
   147  145  146 1   
   148  145  148 1   
   149  145  154 1   
   150  146  147 2   
   151  146  159 1   
   152  148  149 1   
   153  148  155 1   
   154  148  156 1   
   155  149  150 1   
   156  149  157 1   
   157  149  158 1   
   158  150  151 1   
   159  150  152 1   
   160  159  160 1   
   161  159  168 1   
   162  160  161 1   
   163  160  163 1   
   164  160  169 1   
   165  161  162 2   
   166  161  174 1   
   167  163  164 1   
   168  163  170 1   
   169  163  171 1   
   170  164  165 1   
   171  164  172 1   
   172  164  173 1   
   173  165  166 1   
   174  165  167 1   
   175  174  175 1   
   176  174  179 1   
   177  175  176 1   
   178  175  177 1   
   179  175  178 1   
   180  181  182 1   
   181  181  183 1   
   182  184  185 1   
   183  184  186 1   
   184  187  188 1   
   185  187  189 1   
   186  190  191 1   
   187  190  192 1   
   188  193  194 1   
   189  193  195 1   
   190  196  197 1   
   191  196  198 1   
@<TRIPOS>SUBSTRUCTURE
     1 MOL         1 TEMP              0 ****  ****    0 ROOT
