@<TRIPOS>MOLECULE
MOL
  192   187     1     0     0
SMALL
resp


@<TRIPOS>ATOM
      1 C1          9.7740    0.4650    2.1150 c3        1 MOL     -0.472352
      2 C2          8.6510    0.2700    1.1460 c         1 MOL      0.809577
      3 O1          7.4860    0.3450    1.4950 o         1 MOL     -0.692542
      4 H1         10.2740   -0.4880    2.2880 hc        1 MOL      0.117539
      5 H2         10.4880    1.1800    1.7050 hc        1 MOL      0.117539
      6 H3          9.3800    0.8440    3.0580 hc        1 MOL      0.117539
      7 N1          8.8930   -0.1960   -0.1110 n         1 MOL     -0.587888
      8 C3          7.9480   -0.4490   -1.2210 c3        1 MOL      0.040247
      9 C4          7.0740   -1.7330   -1.0920 c         1 MOL      0.525419
     10 O2          6.9210   -2.5290   -2.0440 o         1 MOL     -0.441319
     11 C5          8.6400   -0.2730   -2.5900 c3        1 MOL     -0.242192
     12 C6          9.7670   -1.2640   -2.9200 c         1 MOL      0.694578
     13 O3         10.2210   -1.9440   -2.0160 o         1 MOL     -0.629544
     14 O4         10.1420   -1.4380   -4.1220 o         1 MOL     -0.629544
     15 H4          9.8440   -0.4440   -0.3080 hn        1 MOL      0.278400
     16 H5          7.2080    0.3510   -1.2310 h1        1 MOL      0.093317
     17 H6          9.0290    0.7460   -2.5790 hc        1 MOL      0.072439
     18 H7          7.8420   -0.2610   -3.3350 hc        1 MOL      0.072439
     19 N2          6.6940   -2.1050    0.1290 n         1 MOL     -0.354834
     20 C7          6.1150   -3.4070    0.4630 c3        1 MOL     -0.018700
     21 C8          4.6850   -3.6210   -0.0530 c         1 MOL      0.463500
     22 O5          4.4110   -4.6890   -0.6020 o         1 MOL     -0.535697
     23 C9          6.2430   -3.5430    1.9840 c3        1 MOL      0.001295
     24 C10         7.6750   -3.8400    2.4650 c3        1 MOL      0.110030
     25 C11         7.8130   -4.2180    3.8900 c3        1 MOL     -0.244831
     26 C12         9.3390   -4.2920    4.1590 c3        1 MOL      0.110698
     27 N3          9.6590   -4.1470    5.5730 n4        1 MOL     -0.273352
     28 H8          6.8750   -1.5770    0.9660 hn        1 MOL      0.237473
     29 H9          6.7140   -4.1900    0.0110 h1        1 MOL      0.098505
     30 H10         5.5220   -4.3130    2.2680 hc        1 MOL      0.016896
     31 H11         5.9250   -2.6830    2.5770 hc        1 MOL      0.016896
     32 H12         8.3720   -3.0130    2.3210 hc        1 MOL      0.002869
     33 H13         8.1140   -4.6300    1.8630 hc        1 MOL      0.002869
     34 H14         7.3670   -5.2130    3.9130 hc        1 MOL      0.083686
     35 H15         7.2710   -3.5890    4.5960 hc        1 MOL      0.083686
     36 H16         9.8350   -3.4900    3.6120 hx        1 MOL      0.075507
     37 H17         9.8590   -5.1790    3.7920 hx        1 MOL      0.075507
     38 H18         9.3430   -3.2500    5.9090 hn        1 MOL      0.259596
     39 H19         9.1050   -4.7390    6.1840 hn        1 MOL      0.259596
     40 H20        10.6570   -4.1990    5.7060 hn        1 MOL      0.259596
     41 N4          3.7090   -2.7390    0.1290 n         1 MOL     -0.329287
     42 C13         3.6290   -1.4820    0.7770 c3        1 MOL      0.016148
     43 C14         3.8270   -0.3050   -0.2580 c         1 MOL      0.404897
     44 O6          3.6360   -0.5730   -1.4650 o         1 MOL     -0.482328
     45 C15         2.3040   -1.3190    1.5630 c3        1 MOL     -0.198794
     46 C16         1.1060   -1.8370    0.8610 c         1 MOL      0.579208
     47 O7          0.8740   -1.3920   -0.2400 o         1 MOL     -0.619709
     48 O8          0.3740   -2.6500    1.4660 o         1 MOL     -0.619709
     49 H21         2.8420   -3.0980   -0.2400 hn        1 MOL      0.334040
     50 H22         4.4300   -1.3690    1.5140 h1        1 MOL      0.060197
     51 H23         2.2240   -0.2500    1.7440 hc        1 MOL      0.057002
     52 H24         2.5720   -1.7350    2.5380 hc        1 MOL      0.057002
     53 N5          4.1560    0.9110    0.1830 n         1 MOL     -0.348572
     54 C17         4.1000    2.1660   -0.6490 c3        1 MOL     -0.085499
     55 C18         2.6890    2.7820   -1.0130 c         1 MOL      0.703835
     56 O9          1.6560    2.1760   -0.7870 o         1 MOL     -0.737313
     57 H25         4.4370    0.9840    1.1490 hn        1 MOL      0.304110
     58 H26         4.4420    1.8980   -1.6450 h1        1 MOL      0.081356
     59 H27         4.7600    2.9710   -0.3310 h1        1 MOL      0.081356
     60 N6          2.8210    3.9730   -1.5780 n         1 MOL     -0.510542
     61 C19         1.7470    4.6980   -2.2110 c3        1 MOL      0.369761
     62 C20         2.0890    6.1970   -2.2900 c         1 MOL      0.383137
     63 O10         3.2470    6.6030   -2.2480 o         1 MOL     -0.509410
     64 C21         1.5100    4.3370   -3.6670 c3        1 MOL     -0.487746
     65 C22         1.0930    2.8610   -3.8410 c         1 MOL      0.688719
     66 O11         0.2690    2.4030   -3.0150 o         1 MOL     -0.656807
     67 O12         1.5450    2.2030   -4.8450 o         1 MOL     -0.656807
     68 H28         3.7090    4.4650   -1.6150 hn        1 MOL      0.271223
     69 H29         0.8380    4.4880   -1.6460 h1        1 MOL      0.087171
     70 H30         2.4250    4.5110   -4.2350 hc        1 MOL      0.131705
     71 H31         0.7140    4.8780   -4.1860 hc        1 MOL      0.131705
     72 N7          1.1140    7.1560   -2.3320 n         1 MOL     -0.387678
     73 C23        -0.3700    7.0100   -2.3000 c3        1 MOL     -0.182804
     74 C24        -0.9990    6.5900   -0.9800 c         1 MOL      0.721487
     75 O13        -0.6340    7.1490    0.0360 o         1 MOL     -0.562326
     76 H32         1.4020    8.1240   -2.3120 hn        1 MOL      0.319727
     77 H33        -0.6240    6.2350   -3.0210 h1        1 MOL      0.083833
     78 H34        -0.7600    8.0030   -2.5070 h1        1 MOL      0.083833
     79 N8         -1.9560    5.6480   -1.0530 n         1 MOL     -0.691071
     80 C25        -2.7020    5.0240    0.0750 c3        1 MOL      0.168263
     81 C26        -1.8260    3.8770    0.5710 c         1 MOL      0.524104
     82 O14        -1.2770    3.1080   -0.2360 o         1 MOL     -0.590819
     83 C27        -4.1320    4.6170   -0.2800 c3        1 MOL      0.427027
     84 C28        -5.1870    5.7000   -0.5060 c3        1 MOL     -0.293762
     85 O15        -4.5800    3.7910    0.6920 oh        1 MOL     -0.616902
     86 H35        -2.0370    5.2940   -1.9950 hn        1 MOL      0.337398
     87 H36        -2.8450    5.8190    0.7940 h1        1 MOL      0.054859
     88 H37        -3.9330    4.1710   -1.2460 h1        1 MOL     -0.037833
     89 H38        -5.2530    3.2590    0.2410 ho        1 MOL      0.356945
     90 H39        -5.9950    5.3640   -1.1450 hc        1 MOL      0.075743
     91 H40        -5.5900    6.1070    0.4240 hc        1 MOL      0.075743
     92 H41        -4.6700    6.5190   -1.0120 hc        1 MOL      0.075743
     93 N9         -1.6570    3.8470    1.9040 n         1 MOL     -0.532361
     94 C29        -0.8450    2.9270    2.6780 c3        1 MOL      0.055494
     95 C30        -1.1410    1.4810    2.2820 c         1 MOL      0.476531
     96 O16        -0.5890    0.8600    1.3790 o         1 MOL     -0.513577
     97 C31         0.7320    3.1750    2.5040 c3        1 MOL     -0.014977
     98 C32         1.2070    4.6380    2.3360 c3        1 MOL      0.060271
     99 C33         1.5580    2.4820    3.6440 c3        1 MOL     -0.395778
    100 C34         2.7420    4.8270    2.2070 c3        1 MOL     -0.416789
    101 H42        -1.9610    4.6990    2.3590 hn        1 MOL      0.296988
    102 H43        -1.1680    3.0480    3.7070 h1        1 MOL      0.091296
    103 H44         1.1070    2.6740    1.6110 hc        1 MOL      0.158819
    104 H45         0.8460    5.3370    3.0900 hc        1 MOL      0.025591
    105 H46         0.8190    4.9910    1.3750 hc        1 MOL      0.025591
    106 H47         1.1590    2.9250    4.5550 hc        1 MOL      0.098041
    107 H48         1.2640    1.4370    3.7020 hc        1 MOL      0.098041
    108 H49         2.6390    2.3800    3.5210 hc        1 MOL      0.098041
    109 H50         2.9090    5.8560    1.8750 hc        1 MOL      0.110453
    110 H51         3.0760    4.8550    3.2450 hc        1 MOL      0.110453
    111 H52         3.2540    4.0740    1.6220 hc        1 MOL      0.110453
    112 N10        -2.1650    0.9840    2.9790 n         1 MOL     -0.239464
    113 C35        -2.6100   -0.4330    2.9790 c3        1 MOL     -0.255915
    114 C36        -4.1250   -0.6440    2.9540 c         1 MOL      0.637496
    115 O17        -4.6070   -1.7340    3.2740 o         1 MOL     -0.580032
    116 C37        -1.8320   -1.2540    4.0690 c3        1 MOL      0.460344
    117 C38        -2.1560   -0.7440    5.4260 c3        1 MOL     -0.297170
    118 O18        -0.4780   -1.0600    3.7420 oh        1 MOL     -0.529776
    119 H53        -2.5820    1.5820    3.6820 hn        1 MOL      0.216521
    120 H54        -2.2690   -0.7300    1.9900 h1        1 MOL      0.059084
    121 H55        -2.1740   -2.2830    4.1330 h1        1 MOL      0.015435
    122 H56        -0.3690   -1.6050    2.9650 ho        1 MOL      0.268078
    123 H57        -1.5630    0.1500    5.6270 hc        1 MOL      0.067938
    124 H58        -3.2310   -0.6180    5.5480 hc        1 MOL      0.067938
    125 H59        -1.7630   -1.4080    6.1950 hc        1 MOL      0.067938
    126 N11        -4.9560    0.3660    2.5970 n         1 MOL     -0.228763
    127 C39        -6.4230    0.2380    2.5250 c3        1 MOL     -0.227580
    128 C40        -6.9210   -0.5670    1.3110 c         1 MOL      0.777874
    129 O19        -7.1890    0.0270    0.2680 o         1 MOL     -0.542634
    130 C41        -7.0250    1.6580    2.5870 c3        1 MOL      0.384253
    131 C42        -8.5140    1.6890    2.5390 c3        1 MOL     -0.239073
    132 O20        -6.6700    2.3590    3.7400 oh        1 MOL     -0.638403
    133 H60        -4.5010    1.2070    2.2940 hn        1 MOL      0.184567
    134 H61        -6.7220   -0.2860    3.4260 h1        1 MOL      0.129558
    135 H62        -6.6060    2.2780    1.8040 h1        1 MOL     -0.019380
    136 H63        -7.2810    3.0930    3.7420 ho        1 MOL      0.400478
    137 H64        -8.8540    0.8140    3.1010 hc        1 MOL      0.055734
    138 H65        -9.0660    2.5570    2.8880 hc        1 MOL      0.055734
    139 H66        -8.7400    1.4470    1.5010 hc        1 MOL      0.055734
    140 N12        -6.7300   -1.8930    1.3940 n         1 MOL     -0.889960
    141 C43        -6.4600   -2.7710    0.2220 c3        1 MOL      0.446413
    142 C44        -5.2180   -2.4570   -0.6580 c         1 MOL      0.589259
    143 O21        -4.6840   -1.3750   -0.5610 o         1 MOL     -0.560740
    144 C45        -7.7840   -2.9080   -0.6020 c3        1 MOL     -0.401564
    145 C46        -9.1000   -3.1770    0.1920 c3        1 MOL      0.112999
    146 C47       -10.2870   -3.2920   -0.7530 c3        1 MOL      0.043150
    147 C48       -11.5380   -3.5350    0.0400 c3        1 MOL     -0.091087
    148 N13       -12.6860   -3.2610   -0.7890 n4        1 MOL     -0.016648
    149 H67        -6.2380   -2.1750    2.2390 hn        1 MOL      0.391598
    150 H68        -6.2690   -3.7670    0.6290 h1        1 MOL      0.012309
    151 H69        -7.6870   -3.7170   -1.3260 hc        1 MOL      0.095231
    152 H70        -7.9150   -1.9650   -1.1280 hc        1 MOL      0.095231
    153 H71        -9.2670   -2.3680    0.8960 hc        1 MOL      0.009633
    154 H72        -9.0230   -4.1710    0.6450 hc        1 MOL      0.009633
    155 H73       -10.1900   -4.1010   -1.4770 hc        1 MOL      0.028196
    156 H74       -10.2980   -2.3290   -1.2680 hc        1 MOL      0.028196
    157 H75       -11.5650   -2.8780    0.9190 hx        1 MOL      0.083258
    158 H76       -11.5160   -4.6130    0.2140 hx        1 MOL      0.083258
    159 H77       -12.7530   -3.7890   -1.6550 hn        1 MOL      0.170400
    160 H78       -13.5240   -3.3620   -0.2230 hn        1 MOL      0.170400
    161 H79       -12.5900   -2.3190   -1.1350 hn        1 MOL      0.170400
    162 N14        -4.7220   -3.4860   -1.3170 n         1 MOL     -0.725430
    163 C49        -3.4530   -3.2690   -2.1310 c3        1 MOL      0.319270
    164 C50        -2.2760   -2.8100   -1.1890 c         1 MOL      0.364510
    165 O22        -1.5780   -1.8560   -1.5790 o         1 MOL     -0.609543
    166 C51        -3.1140   -4.5830   -2.9230 c3        1 MOL      0.031100
    167 C52        -4.0620   -4.9680   -4.1070 c3        1 MOL     -0.294136
    168 C53        -3.5490   -6.2120   -4.9210 c         1 MOL      0.727562
    169 O23        -3.3740   -6.1430   -6.1620 o         1 MOL     -0.638686
    170 O24        -3.5700   -7.2950   -4.3270 o         1 MOL     -0.638686
    171 H80        -5.1800   -4.3810   -1.2950 hn        1 MOL      0.370879
    172 H81        -3.6540   -2.4580   -2.8420 h1        1 MOL      0.033525
    173 H82        -3.0330   -5.3970   -2.1940 hc        1 MOL      0.027670
    174 H83        -2.0900   -4.4920   -3.2830 hc        1 MOL      0.027670
    175 H84        -4.0040   -4.0750   -4.7330 hc        1 MOL      0.040992
    176 H85        -5.0260   -5.1880   -3.6580 hc        1 MOL      0.040992
    177 N15        -1.9350   -3.3140   -0.0100 n         1 MOL     -0.228014
    178 C54        -2.3950   -4.6210    0.5410 c3        1 MOL     -0.116444
    179 H86        -2.0690   -4.7130    1.5770 h1        1 MOL      0.055950
    180 H87        -3.4830   -4.6730    0.4970 h1        1 MOL      0.055950
    181 H88        -1.9680   -5.4340   -0.0460 h1        1 MOL      0.055950
    182 H89        -1.1430   -2.8960    0.4370 hn        1 MOL      0.331874
    183 Ca1        -0.4280    0.5710   -1.2070 Ca        1 MOL      1.800004
    184 O25        -2.9860    0.9240   -0.8300 oh        1 MOL     -0.851691
    185 H90        -3.4880    0.1410   -1.0740 ho        1 MOL      0.412909
    186 H91        -3.6460    1.5450   -0.5190 ho        1 MOL      0.412909
    187 O26         1.3780   -0.0330   -3.2220 oh        1 MOL     -0.851691
    188 H92         1.4380    0.7000   -3.8260 ho        1 MOL      0.412909
    189 H93         2.2020   -0.0300   -2.7430 ho        1 MOL      0.412909
    190 O27        -1.6630    0.5130   -3.6480 oh        1 MOL     -0.851691
    191 H94        -2.4450    0.9730   -3.9570 ho        1 MOL      0.412909
    192 H95        -1.3290    0.0560   -4.4140 ho        1 MOL      0.412909
@<TRIPOS>BOND
     1    1    2 1   
     2    1    4 1   
     3    1    5 1   
     4    1    6 1   
     5    2    3 2   
     6    2    7 1   
     7    7    8 1   
     8    7   15 1   
     9    8    9 1   
    10    8   11 1   
    11    8   16 1   
    12    9   10 2   
    13    9   19 1   
    14   11   12 1   
    15   11   17 1   
    16   11   18 1   
    17   12   13 1   
    18   12   14 1   
    19   19   20 1   
    20   19   28 1   
    21   20   21 1   
    22   20   23 1   
    23   20   29 1   
    24   21   22 2   
    25   21   41 1   
    26   23   24 1   
    27   23   30 1   
    28   23   31 1   
    29   24   25 1   
    30   24   32 1   
    31   24   33 1   
    32   25   26 1   
    33   25   34 1   
    34   25   35 1   
    35   26   27 1   
    36   26   36 1   
    37   26   37 1   
    38   27   38 1   
    39   27   39 1   
    40   27   40 1   
    41   41   42 1   
    42   41   49 1   
    43   42   43 1   
    44   42   45 1   
    45   42   50 1   
    46   43   44 2   
    47   43   53 1   
    48   45   46 1   
    49   45   51 1   
    50   45   52 1   
    51   46   47 1   
    52   46   48 1   
    53   53   54 1   
    54   53   57 1   
    55   54   55 1   
    56   54   58 1   
    57   54   59 1   
    58   55   56 2   
    59   55   60 1   
    60   60   61 1   
    61   60   68 1   
    62   61   62 1   
    63   61   64 1   
    64   61   69 1   
    65   62   63 2   
    66   62   72 1   
    67   64   65 1   
    68   64   70 1   
    69   64   71 1   
    70   65   66 1   
    71   65   67 1   
    72   72   73 1   
    73   72   76 1   
    74   73   74 1   
    75   73   77 1   
    76   73   78 1   
    77   74   75 2   
    78   74   79 1   
    79   79   80 1   
    80   79   86 1   
    81   80   81 1   
    82   80   83 1   
    83   80   87 1   
    84   81   82 2   
    85   81   93 1   
    86   83   84 1   
    87   83   85 1   
    88   83   88 1   
    89   84   90 1   
    90   84   91 1   
    91   84   92 1   
    92   85   89 1   
    93   93   94 1   
    94   93  101 1   
    95   94   95 1   
    96   94   97 1   
    97   94  102 1   
    98   95   96 2   
    99   95  112 1   
   100   97   98 1   
   101   97   99 1   
   102   97  103 1   
   103   98  100 1   
   104   98  104 1   
   105   98  105 1   
   106   99  106 1   
   107   99  107 1   
   108   99  108 1   
   109  100  109 1   
   110  100  110 1   
   111  100  111 1   
   112  112  113 1   
   113  112  119 1   
   114  113  114 1   
   115  113  116 1   
   116  113  120 1   
   117  114  115 2   
   118  114  126 1   
   119  116  117 1   
   120  116  118 1   
   121  116  121 1   
   122  117  123 1   
   123  117  124 1   
   124  117  125 1   
   125  118  122 1   
   126  126  127 1   
   127  126  133 1   
   128  127  128 1   
   129  127  130 1   
   130  127  134 1   
   131  128  129 2   
   132  128  140 1   
   133  130  131 1   
   134  130  132 1   
   135  130  135 1   
   136  131  137 1   
   137  131  138 1   
   138  131  139 1   
   139  132  136 1   
   140  140  141 1   
   141  140  149 1   
   142  141  142 1   
   143  141  144 1   
   144  141  150 1   
   145  142  143 2   
   146  142  162 1   
   147  144  145 1   
   148  144  151 1   
   149  144  152 1   
   150  145  146 1   
   151  145  153 1   
   152  145  154 1   
   153  146  147 1   
   154  146  155 1   
   155  146  156 1   
   156  147  148 1   
   157  147  157 1   
   158  147  158 1   
   159  148  159 1   
   160  148  160 1   
   161  148  161 1   
   162  162  163 1   
   163  162  171 1   
   164  163  164 1   
   165  163  166 1   
   166  163  172 1   
   167  164  165 2   
   168  164  177 1   
   169  166  167 1   
   170  166  173 1   
   171  166  174 1   
   172  167  168 1   
   173  167  175 1   
   174  167  176 1   
   175  168  169 1   
   176  168  170 1   
   177  177  178 1   
   178  177  182 1   
   179  178  179 1   
   180  178  180 1   
   181  178  181 1   
   182  184  185 1   
   183  184  186 1   
   184  187  188 1   
   185  187  189 1   
   186  190  191 1   
   187  190  192 1   
@<TRIPOS>SUBSTRUCTURE
     1 MOL         1 TEMP              0 ****  ****    0 ROOT
