@<TRIPOS>MOLECULE
MOL
  189   185     1     0     0
SMALL
resp


@<TRIPOS>ATOM
      1 C1         12.3480    4.6920   -4.1770 c3        1 MOL     -0.313686
      2 C2         12.0170    3.3110   -3.4770 c         1 MOL      0.550037
      3 O1         12.6570    2.3480   -3.8290 o         1 MOL     -0.545045
      4 H1         11.8140    5.4940   -3.6680 hc        1 MOL      0.083485
      5 H2         13.4200    4.8800   -4.1230 hc        1 MOL      0.083485
      6 H3         12.0370    4.6550   -5.2210 hc        1 MOL      0.083485
      7 N1         11.1300    3.3530   -2.4830 n         1 MOL     -0.057299
      8 C3         10.8060    2.2060   -1.6210 c3        1 MOL     -0.619426
      9 C4          9.2780    1.8920   -1.5210 c         1 MOL      0.953059
     10 O2          8.3870    2.7610   -1.6380 o         1 MOL     -0.733010
     11 C5         11.4140    2.4680   -0.1980 c3        1 MOL      0.110867
     12 C6         11.1690    3.9400    0.3310 c         1 MOL      0.627315
     13 O3         11.7350    4.1930    1.4360 o         1 MOL     -0.681260
     14 O4         10.3980    4.7650   -0.2510 o         1 MOL     -0.681260
     15 H4         10.5930    4.1740   -2.2260 hn        1 MOL      0.077385
     16 H5         11.2950    1.3010   -1.9600 h1        1 MOL      0.168752
     17 H6         12.4630    2.1990   -0.1350 hc        1 MOL      0.035543
     18 H7         10.9010    1.8500    0.5430 hc        1 MOL      0.035543
     19 N2          8.9040    0.5860   -1.3090 n         1 MOL     -0.750764
     20 C7          7.5390    0.0580   -1.3050 c3        1 MOL      0.197290
     21 C8          6.7340    0.2290    0.0600 c         1 MOL      0.604629
     22 O5          7.3660    0.1200    1.0970 o         1 MOL     -0.504336
     23 C9          7.6110   -1.4370   -1.4900 c3        1 MOL     -0.285080
     24 C10         8.0900   -1.9030   -2.8740 c3        1 MOL     -0.012548
     25 C11         8.1750   -3.4880   -3.0560 c3        1 MOL      0.087301
     26 C12         8.8510   -3.6690   -4.4710 c3        1 MOL     -0.000284
     27 N3          9.2000   -5.1330   -4.7840 n4        1 MOL     -0.115449
     28 H8          9.6250   -0.1090   -1.2130 hn        1 MOL      0.401543
     29 H9          7.0400    0.4690   -2.1830 h1        1 MOL      0.091608
     30 H10         6.6030   -1.8070   -1.2920 hc        1 MOL      0.099887
     31 H11         8.3790   -1.7510   -0.7910 hc        1 MOL      0.099887
     32 H12         9.0990   -1.5410   -3.0300 hc        1 MOL      0.028495
     33 H13         7.3750   -1.5680   -3.6340 hc        1 MOL      0.028495
     34 H14         7.1340   -3.8190   -3.0810 hc        1 MOL      0.011964
     35 H15         8.7420   -4.0440   -2.3090 hc        1 MOL      0.011964
     36 H16         9.8260   -3.1880   -4.4370 hx        1 MOL      0.063967
     37 H17         8.2300   -3.2890   -5.2810 hx        1 MOL      0.063967
     38 H18         9.4500   -5.1800   -5.7630 hn        1 MOL      0.212233
     39 H19        10.0700   -5.3690   -4.3220 hn        1 MOL      0.212233
     40 H20         8.5240   -5.8430   -4.5430 hn        1 MOL      0.212233
     41 N4          5.4290    0.4110   -0.0610 n         1 MOL     -0.803586
     42 C13         4.3700    0.5550    0.9620 c3        1 MOL      0.525353
     43 C14         3.0750   -0.2420    0.5150 c         1 MOL      0.480881
     44 O6          2.7670   -0.2540   -0.6300 o         1 MOL     -0.533605
     45 C15         4.0330    1.9990    1.3500 c3        1 MOL     -0.252342
     46 C16         5.2930    2.9080    1.5020 c         1 MOL      0.600335
     47 O7          5.9240    3.3690    0.5410 o         1 MOL     -0.689218
     48 O8          5.7020    3.1390    2.6470 o         1 MOL     -0.689218
     49 H21         5.0290    0.5930   -0.9790 hn        1 MOL      0.298717
     50 H22         4.6520    0.0700    1.8930 h1        1 MOL      0.024805
     51 H23         3.5340    1.9530    2.3200 hc        1 MOL      0.075270
     52 H24         3.2890    2.3980    0.6600 hc        1 MOL      0.075270
     53 N5          2.1300   -0.7040    1.4010 n         1 MOL     -0.534933
     54 C17         2.2220   -0.8290    2.8530 c3        1 MOL     -0.302499
     55 C18         2.5860   -2.2540    3.2550 c         1 MOL      0.728090
     56 O9          2.8870   -3.0620    2.3530 o         1 MOL     -0.618207
     57 H25         1.3690   -1.1870    0.9310 hn        1 MOL      0.381510
     58 H26         1.3280   -0.4350    3.3400 h1        1 MOL      0.150101
     59 H27         3.0630   -0.2240    3.2090 h1        1 MOL      0.150101
     60 N6          2.2220   -2.6370    4.4660 n         1 MOL     -0.549771
     61 C19         2.1860   -4.0460    4.8040 c3        1 MOL      0.116851
     62 C20         1.0710   -4.8100    4.1090 c         1 MOL      0.559004
     63 O10        -0.1410   -4.5100    4.1550 o         1 MOL     -0.543225
     64 C21         2.1420   -4.2440    6.3080 c3        1 MOL     -0.163686
     65 C22         2.3470   -5.6250    6.7210 c         1 MOL      0.686986
     66 O11         2.9030   -6.4680    5.9390 o         1 MOL     -0.724911
     67 O12         1.8550   -5.8830    7.8650 o         1 MOL     -0.724911
     68 H28         1.6810   -1.9900    5.0280 hn        1 MOL      0.290047
     69 H29         3.1410   -4.4480    4.4810 h1        1 MOL      0.029659
     70 H30         1.1590   -3.9090    6.6470 hc        1 MOL      0.044444
     71 H31         2.9540   -3.6640    6.7610 hc        1 MOL      0.044444
     72 N7          1.4050   -5.9120    3.3860 n         1 MOL     -0.314276
     73 C23         0.5980   -6.7970    2.5840 c3        1 MOL      0.034129
     74 C24         0.5620   -6.3400    1.1470 c         1 MOL      0.476738
     75 O13         0.6460   -7.0750    0.1610 o         1 MOL     -0.592766
     76 H32         2.3600   -6.1890    3.2100 hn        1 MOL      0.248068
     77 H33        -0.4490   -6.7370    2.8970 h1        1 MOL      0.053749
     78 H34         0.9350   -7.8210    2.7060 h1        1 MOL      0.053749
     79 N8          0.5550   -5.0450    0.9960 n         1 MOL     -0.238504
     80 C25         0.2780   -4.2740   -0.2600 c3        1 MOL     -0.109468
     81 C26        -0.5730   -3.0070   -0.0380 c         1 MOL      0.593617
     82 O14        -0.3290   -2.3010    0.9160 o         1 MOL     -0.464788
     83 C27         1.6050   -3.7670   -0.7950 c3        1 MOL      0.467851
     84 C28         2.7000   -4.8120   -0.8310 c3        1 MOL     -0.462287
     85 O15         1.4040   -3.3280   -2.0670 oh        1 MOL     -0.645860
     86 H35         0.4860   -4.4700    1.8190 hn        1 MOL      0.146250
     87 H36        -0.1740   -4.8530   -1.0700 h1        1 MOL      0.107832
     88 H37         2.0970   -3.0320   -0.1550 h1        1 MOL      0.013460
     89 H38         2.0620   -2.6540   -2.2430 ho        1 MOL      0.394968
     90 H39         3.1500   -4.9520    0.1530 hc        1 MOL      0.113330
     91 H40         2.3810   -5.6820   -1.3980 hc        1 MOL      0.113330
     92 H41         3.5320   -4.4230   -1.4190 hc        1 MOL      0.113330
     93 N9         -1.4210   -2.6010   -0.9630 n         1 MOL     -0.621037
     94 C29        -2.1920   -1.3020   -1.1180 c3        1 MOL      0.015659
     95 C30        -3.6730   -1.5080   -0.8240 c         1 MOL      0.550481
     96 O16        -4.3090   -0.8540    0.0510 o         1 MOL     -0.534781
     97 C31        -1.9500   -0.6790   -2.5250 c3        1 MOL      0.048085
     98 C32        -0.4970   -0.2850   -2.6010 c3        1 MOL      0.162596
     99 C33        -2.9050    0.4350   -2.8600 c3        1 MOL     -0.339757
    100 C34         0.0760   -0.4680   -3.9720 c3        1 MOL     -0.263733
    101 H42        -1.6850   -3.3100   -1.6220 hn        1 MOL      0.299487
    102 H43        -1.8300   -0.5530   -0.4170 h1        1 MOL      0.081412
    103 H44        -2.2200   -1.4360   -3.2580 hc        1 MOL      0.015765
    104 H45         0.1400   -0.8230   -1.9020 hc        1 MOL     -0.003484
    105 H46        -0.3930    0.7650   -2.3340 hc        1 MOL     -0.003484
    106 H47        -2.9790    1.2410   -2.1270 hc        1 MOL      0.095066
    107 H48        -2.6450    0.8910   -3.8100 hc        1 MOL      0.095066
    108 H49        -3.9160    0.0590   -2.9880 hc        1 MOL      0.095066
    109 H50        -0.4400    0.1650   -4.7040 hc        1 MOL      0.055348
    110 H51         1.1020   -0.1090   -3.8910 hc        1 MOL      0.055348
    111 H52         0.1060   -1.5180   -4.2410 hc        1 MOL      0.055348
    112 N10        -4.3370   -2.3470   -1.5970 n         1 MOL     -0.144835
    113 C35        -5.7580   -2.7500   -1.6100 c3        1 MOL     -0.468902
    114 C36        -6.5380   -2.0450   -2.6780 c         1 MOL      0.708668
    115 O17        -6.1070   -2.0060   -3.8150 o         1 MOL     -0.542200
    116 C37        -5.9950   -4.2230   -1.7370 c3        1 MOL      0.483689
    117 C38        -5.1930   -5.1910   -0.9530 c3        1 MOL     -0.294543
    118 O18        -7.3110   -4.5020   -1.3440 oh        1 MOL     -0.654773
    119 H53        -3.7820   -2.7820   -2.3260 hn        1 MOL      0.204402
    120 H54        -6.2030   -2.4840   -0.6570 h1        1 MOL      0.164538
    121 H55        -5.9980   -4.5860   -2.7620 h1        1 MOL      0.046712
    122 H56        -7.3180   -4.3580   -0.3920 ho        1 MOL      0.379779
    123 H57        -4.1580   -5.0120   -1.2470 hc        1 MOL      0.077864
    124 H58        -5.2960   -4.9610    0.1040 hc        1 MOL      0.077864
    125 H59        -5.4730   -6.2290   -1.1730 hc        1 MOL      0.077864
    126 N11        -7.6370   -1.3740   -2.2920 n         1 MOL     -0.538429
    127 C39        -8.5780   -0.6450   -3.1440 c3        1 MOL      0.040383
    128 C40        -8.9320    0.7940   -2.7280 c         1 MOL      0.525563
    129 O19        -9.2990    1.5680   -3.6350 o         1 MOL     -0.522472
    130 C41        -9.8520   -1.4530   -3.4200 c3        1 MOL      0.080902
    131 C42       -10.8050   -0.8940   -4.5290 c3        1 MOL     -0.182993
    132 O20       -10.6990   -1.3770   -2.2980 oh        1 MOL     -0.607060
    133 H60        -7.9390   -1.5770   -1.3550 hn        1 MOL      0.279310
    134 H61        -8.0390   -0.5320   -4.0870 h1        1 MOL      0.123210
    135 H62        -9.7070   -2.5080   -3.6620 h1        1 MOL      0.111588
    136 H63       -10.2380   -1.9300   -1.6500 ho        1 MOL      0.375798
    137 H64       -11.7100   -1.4470   -4.8090 hc        1 MOL      0.071604
    138 H65       -10.9050    0.1800   -4.3560 hc        1 MOL      0.071604
    139 H66       -10.2930   -0.9260   -5.4870 hc        1 MOL      0.071604
    140 N12        -8.8670    1.0080   -1.3800 n         1 MOL     -0.325805
    141 C43        -9.3160    2.2140   -0.7000 c3        1 MOL     -0.068939
    142 C44        -8.2450    2.5930    0.3950 c         1 MOL      0.356092
    143 O21        -7.6050    1.7860    1.0110 o         1 MOL     -0.459206
    144 C45       -10.6810    1.8350   -0.1460 c3        1 MOL     -0.101615
    145 C46       -11.8740    1.9980   -1.0500 c3        1 MOL     -0.127708
    146 C47       -13.2130    1.4920   -0.5580 c3        1 MOL     -0.085993
    147 C48       -13.2970    0.1280    0.0560 c3        1 MOL      0.117566
    148 N13       -13.2770   -0.8410   -1.0330 n4        1 MOL     -0.343939
    149 H67        -8.4680    0.1920   -0.9210 hn        1 MOL      0.224095
    150 H68        -9.4070    2.9850   -1.4600 h1        1 MOL      0.101855
    151 H69       -10.7800    2.4460    0.7570 hc        1 MOL      0.080866
    152 H70       -10.6760    0.7910    0.1710 hc        1 MOL      0.080866
    153 H71       -11.7260    1.5270   -2.0190 hc        1 MOL      0.077538
    154 H72       -12.0010    3.0830   -1.0690 hc        1 MOL      0.077538
    155 H73       -14.0030    1.6420   -1.2830 hc        1 MOL      0.060333
    156 H74       -13.4560    2.1450    0.2900 hc        1 MOL      0.060333
    157 H75       -14.3040    0.0640    0.4520 hx        1 MOL      0.051696
    158 H76       -12.5920   -0.0230    0.8750 hx        1 MOL      0.051696
    159 H77       -12.3220   -0.9870   -1.3270 hn        1 MOL      0.308290
    160 H78       -13.6990   -1.6890   -0.6930 hn        1 MOL      0.308290
    161 H79       -13.9350   -0.5290   -1.7410 hn        1 MOL      0.308290
    162 N14        -8.2050    3.8500    0.6250 n         1 MOL     -0.117803
    163 C49        -7.5160    4.4670    1.7860 c3        1 MOL      0.004018
    164 C50        -5.9960    4.3690    1.7480 c         1 MOL      0.428308
    165 O22        -5.3380    3.8950    2.6610 o         1 MOL     -0.525411
    166 C51        -8.1210    5.8650    1.9950 c3        1 MOL     -0.123293
    167 C52        -8.0360    6.3370    3.4880 c3        1 MOL     -0.068972
    168 C53        -8.6220    7.7660    3.6600 c         1 MOL      0.640290
    169 O23        -7.9060    8.8450    3.6080 o         1 MOL     -0.635540
    170 O24        -9.7870    7.7470    4.1170 o         1 MOL     -0.635540
    171 H80        -8.7520    4.4060   -0.0070 hn        1 MOL      0.201240
    172 H81        -7.9610    3.8900    2.5920 h1        1 MOL      0.086328
    173 H82        -9.1890    5.8020    1.8080 hc        1 MOL      0.025215
    174 H83        -7.7260    6.6130    1.3110 hc        1 MOL      0.025215
    175 H84        -6.9830    6.3960    3.7680 hc        1 MOL      0.030953
    176 H85        -8.4740    5.5740    4.1190 hc        1 MOL      0.030953
    177 N15        -5.3550    4.6830    0.6630 n         1 MOL     -0.279502
    178 C54        -5.7330    5.1880   -0.7090 c3        1 MOL     -0.049239
    179 H86        -6.7980    5.0230   -0.8760 h1        1 MOL      0.050670
    180 H87        -5.5160    6.2540   -0.7780 h1        1 MOL      0.050670
    181 H88        -5.1610    4.6510   -1.4650 h1        1 MOL      0.050670
    182 H89        -4.3480    4.5700    0.7150 hn        1 MOL      0.264287
    183 Ca1         7.8510    5.0130    0.0970 Ca        1 MOL      1.781528
    184 O25         8.9810    6.6240    2.2320 oh        1 MOL     -0.955392
    185 H90         9.6620    6.2090    2.7530 ho        1 MOL      0.469248
    186 H91         9.1200    7.5700    2.3550 ho        1 MOL      0.469248
    187 O26         8.2500    3.1850    2.0260 oh        1 MOL     -0.955392
    188 H92         7.3720    2.9880    2.3580 ho        1 MOL      0.469248
    189 H93         8.8370    2.6510    2.5540 ho        1 MOL      0.469248
@<TRIPOS>BOND
     1    1    2 1   
     2    1    4 1   
     3    1    5 1   
     4    1    6 1   
     5    2    3 2   
     6    2    7 1   
     7    7    8 1   
     8    7   15 1   
     9    8    9 1   
    10    8   11 1   
    11    8   16 1   
    12    9   10 2   
    13    9   19 1   
    14   11   12 1   
    15   11   17 1   
    16   11   18 1   
    17   12   13 1   
    18   12   14 1   
    19   19   20 1   
    20   19   28 1   
    21   20   21 1   
    22   20   23 1   
    23   20   29 1   
    24   21   22 2   
    25   21   41 1   
    26   23   24 1   
    27   23   30 1   
    28   23   31 1   
    29   24   25 1   
    30   24   32 1   
    31   24   33 1   
    32   25   26 1   
    33   25   34 1   
    34   25   35 1   
    35   26   27 1   
    36   26   36 1   
    37   26   37 1   
    38   27   38 1   
    39   27   39 1   
    40   27   40 1   
    41   41   42 1   
    42   41   49 1   
    43   42   43 1   
    44   42   45 1   
    45   42   50 1   
    46   43   44 2   
    47   43   53 1   
    48   45   46 1   
    49   45   51 1   
    50   45   52 1   
    51   46   47 1   
    52   46   48 1   
    53   53   54 1   
    54   53   57 1   
    55   54   55 1   
    56   54   58 1   
    57   54   59 1   
    58   55   56 2   
    59   55   60 1   
    60   60   61 1   
    61   60   68 1   
    62   61   62 1   
    63   61   64 1   
    64   61   69 1   
    65   62   63 2   
    66   62   72 1   
    67   64   65 1   
    68   64   70 1   
    69   64   71 1   
    70   65   66 1   
    71   65   67 1   
    72   72   73 1   
    73   72   76 1   
    74   73   74 1   
    75   73   77 1   
    76   73   78 1   
    77   74   75 2   
    78   74   79 1   
    79   79   80 1   
    80   79   86 1   
    81   80   81 1   
    82   80   83 1   
    83   80   87 1   
    84   81   82 2   
    85   81   93 1   
    86   83   84 1   
    87   83   85 1   
    88   83   88 1   
    89   84   90 1   
    90   84   91 1   
    91   84   92 1   
    92   85   89 1   
    93   93   94 1   
    94   93  101 1   
    95   94   95 1   
    96   94   97 1   
    97   94  102 1   
    98   95   96 2   
    99   95  112 1   
   100   97   98 1   
   101   97   99 1   
   102   97  103 1   
   103   98  100 1   
   104   98  104 1   
   105   98  105 1   
   106   99  106 1   
   107   99  107 1   
   108   99  108 1   
   109  100  109 1   
   110  100  110 1   
   111  100  111 1   
   112  112  113 1   
   113  112  119 1   
   114  113  114 1   
   115  113  116 1   
   116  113  120 1   
   117  114  115 2   
   118  114  126 1   
   119  116  117 1   
   120  116  118 1   
   121  116  121 1   
   122  117  123 1   
   123  117  124 1   
   124  117  125 1   
   125  118  122 1   
   126  126  127 1   
   127  126  133 1   
   128  127  128 1   
   129  127  130 1   
   130  127  134 1   
   131  128  129 2   
   132  128  140 1   
   133  130  131 1   
   134  130  132 1   
   135  130  135 1   
   136  131  137 1   
   137  131  138 1   
   138  131  139 1   
   139  132  136 1   
   140  140  141 1   
   141  140  149 1   
   142  141  142 1   
   143  141  144 1   
   144  141  150 1   
   145  142  143 2   
   146  142  162 1   
   147  144  145 1   
   148  144  151 1   
   149  144  152 1   
   150  145  146 1   
   151  145  153 1   
   152  145  154 1   
   153  146  147 1   
   154  146  155 1   
   155  146  156 1   
   156  147  148 1   
   157  147  157 1   
   158  147  158 1   
   159  148  159 1   
   160  148  160 1   
   161  148  161 1   
   162  162  163 1   
   163  162  171 1   
   164  163  164 1   
   165  163  166 1   
   166  163  172 1   
   167  164  165 2   
   168  164  177 1   
   169  166  167 1   
   170  166  173 1   
   171  166  174 1   
   172  167  168 1   
   173  167  175 1   
   174  167  176 1   
   175  168  169 1   
   176  168  170 1   
   177  177  178 1   
   178  177  182 1   
   179  178  179 1   
   180  178  180 1   
   181  178  181 1   
   182  184  185 1   
   183  184  186 1   
   184  187  188 1   
   185  187  189 1   
@<TRIPOS>SUBSTRUCTURE
     1 MOL         1 TEMP              0 ****  ****    0 ROOT
