@<TRIPOS>MOLECULE
MOL
  188   182     1     0     0
SMALL
resp


@<TRIPOS>ATOM
      1 C1         -6.2410    2.3030    3.5210 c3        1 MOL     -0.463314
      2 C2         -6.5040    1.0860    2.5550 c         1 MOL      0.602392
      3 O1         -5.8720    0.9370    1.5040 o         1 MOL     -0.564467
      4 H1         -7.0930    2.4280    4.1890 hc        1 MOL      0.124948
      5 H2         -5.3430    2.1130    4.1100 hc        1 MOL      0.124948
      6 H3         -6.1040    3.2120    2.9330 hc        1 MOL      0.124948
      7 N1         -7.4670    0.2050    2.8380 n         1 MOL     -0.543628
      8 C3         -7.9000   -0.9650    2.0570 c3        1 MOL      0.277334
      9 C4         -7.9990   -0.7180    0.5800 c         1 MOL      0.403442
     10 O2         -7.9270   -1.5690   -0.2420 o         1 MOL     -0.422232
     11 C5         -7.0980   -2.1840    2.4440 c3        1 MOL     -0.287282
     12 C6         -7.7680   -3.4330    2.0400 c         1 MOL      0.641491
     13 O3         -6.9930   -4.4560    1.8140 o         1 MOL     -0.627402
     14 O4         -9.0070   -3.6140    2.0040 o         1 MOL     -0.627402
     15 H4         -7.9760    0.4140    3.6850 hn        1 MOL      0.305959
     16 H5         -8.9290   -1.0960    2.4210 h1        1 MOL     -0.000488
     17 H6         -6.7210   -2.1150    3.4630 hc        1 MOL      0.104394
     18 H7         -6.1650   -2.0970    1.8980 hc        1 MOL      0.104394
     19 N2         -8.3660    0.5270    0.1720 n         1 MOL     -0.292708
     20 C7         -8.6170    0.8780   -1.2470 c3        1 MOL     -0.093273
     21 C8         -7.3540    0.9640   -2.1500 c         1 MOL      0.476866
     22 O5         -7.4380    0.8320   -3.3980 o         1 MOL     -0.500277
     23 C9         -9.3980    2.1860   -1.1800 c3        1 MOL     -0.035019
     24 C10        -8.5680    3.3740   -0.7320 c3        1 MOL     -0.110698
     25 C11        -9.2400    4.7670   -0.6420 c3        1 MOL      0.014645
     26 C12        -8.2140    5.8590   -0.3420 c3        1 MOL      0.008090
     27 N3         -8.8850    7.1700   -0.5110 n4        1 MOL     -0.140314
     28 H8         -8.6390    1.1740    0.9040 hn        1 MOL      0.195033
     29 H9         -9.3090    0.1230   -1.6150 h1        1 MOL      0.155083
     30 H10       -10.3180    2.0110   -0.6330 hc        1 MOL      0.035850
     31 H11        -9.6920    2.5290   -2.1810 hc        1 MOL      0.035850
     32 H12        -7.7730    3.4810   -1.4750 hc        1 MOL      0.067899
     33 H13        -8.1170    3.1110    0.2190 hc        1 MOL      0.067899
     34 H14       -10.0360    4.7740    0.1060 hc        1 MOL      0.027353
     35 H15        -9.7970    4.8970   -1.5720 hc        1 MOL      0.027353
     36 H16        -7.3410    5.7950   -0.9890 hx        1 MOL      0.061482
     37 H17        -7.9250    5.8110    0.7040 hx        1 MOL      0.061482
     38 H18        -8.1470    7.8630   -0.4430 hn        1 MOL      0.176737
     39 H19        -9.2330    7.3800   -1.4370 hn        1 MOL      0.176737
     40 H20        -9.5880    7.3170    0.2010 hn        1 MOL      0.176737
     41 N4         -6.1590    0.9100   -1.4330 n         1 MOL     -0.257934
     42 C13        -4.7840    1.0720   -1.9090 c3        1 MOL     -0.246441
     43 C14        -4.4360    0.0010   -2.8720 c         1 MOL      0.659565
     44 O6         -4.7010   -1.1850   -2.6970 o         1 MOL     -0.440319
     45 C15        -3.7900    1.1800   -0.7340 c3        1 MOL      0.090176
     46 C16        -2.3660    1.2120   -1.1940 c         1 MOL      0.647877
     47 O7         -1.7880    2.2940   -1.4230 o         1 MOL     -0.759520
     48 O8         -1.7350    0.1450   -1.3750 o         1 MOL     -0.759520
     49 H21        -6.1920    0.8350   -0.4350 hn        1 MOL      0.164878
     50 H22        -4.6870    2.0310   -2.4130 h1        1 MOL      0.063993
     51 H23        -3.9230    0.2310   -0.2080 hc        1 MOL      0.030075
     52 H24        -4.0360    2.0750   -0.1520 hc        1 MOL      0.030075
     53 N5         -3.7630    0.3440   -3.9550 n         1 MOL     -0.423039
     54 C17        -3.4270   -0.5720   -4.9830 c3        1 MOL     -0.051421
     55 C18        -2.5210   -1.8090   -4.7940 c         1 MOL      0.462477
     56 O9         -2.4930   -2.6860   -5.6340 o         1 MOL     -0.552309
     57 H25        -3.4790    1.3090   -4.0630 hn        1 MOL      0.280467
     58 H26        -2.8380   -0.0240   -5.7150 h1        1 MOL      0.075963
     59 H27        -4.3360   -0.8480   -5.5220 h1        1 MOL      0.075963
     60 N6         -1.9900   -1.9640   -3.5990 n         1 MOL     -0.012335
     61 C19        -1.3200   -3.2340   -3.1530 c3        1 MOL      0.063697
     62 C20        -1.7570   -3.5640   -1.7260 c         1 MOL      0.289466
     63 O10        -1.0160   -4.2560   -0.9810 o         1 MOL     -0.474448
     64 C21         0.1930   -3.3180   -3.4650 c3        1 MOL     -0.486576
     65 C22         1.1350   -2.4740   -2.6130 c         1 MOL      0.785814
     66 N7          2.4440   -2.5370   -2.8230 n         1 MOL     -0.820958
     67 O11         0.6730   -1.5880   -1.8620 o         1 MOL     -0.590180
     68 H28        -2.0370   -1.1800   -2.9620 hn        1 MOL     -0.086161
     69 H29        -1.8200   -4.0590   -3.6660 h1        1 MOL      0.129347
     70 H30         0.3260   -3.0270   -4.5080 hc        1 MOL      0.157816
     71 H31         0.6420   -4.2990   -3.3170 hc        1 MOL      0.157816
     72 H32         2.7180   -3.1220   -3.5950 hn        1 MOL      0.374893
     73 H33         3.0220   -1.9650   -2.2260 hn        1 MOL      0.374893
     74 N8         -2.9030   -3.0530   -1.2500 n         1 MOL     -0.018750
     75 C23        -3.5560   -3.2930    0.0260 c3        1 MOL     -0.145600
     76 C24        -2.8690   -2.6440    1.2100 c         1 MOL      0.515497
     77 O12        -3.0720   -3.0600    2.3610 o         1 MOL     -0.524473
     78 H34        -3.4510   -2.6510   -2.0020 hn        1 MOL      0.132300
     79 H35        -3.5400   -4.3560    0.2790 h1        1 MOL      0.114339
     80 H36        -4.5570   -2.8680   -0.0380 h1        1 MOL      0.114339
     81 N9         -1.9620   -1.6400    0.9970 n         1 MOL     -0.218244
     82 C25        -1.3400   -0.8990    2.1570 c3        1 MOL     -0.035871
     83 C26         0.0930   -0.3710    1.9090 c         1 MOL      0.220954
     84 O13         0.3300    0.0280    0.7760 o         1 MOL     -0.451710
     85 C27        -2.3380    0.1720    2.5440 c3        1 MOL     -0.199813
     86 C28        -1.7900    1.1910    3.4450 ca        1 MOL      0.001657
     87 C29        -1.6590    0.8710    4.8270 ca        1 MOL     -0.131424
     88 C30        -1.1710    2.3200    2.8780 ca        1 MOL     -0.131424
     89 C31        -0.9910    1.7710    5.6610 ca        1 MOL     -0.259637
     90 C32        -0.6140    3.2720    3.7500 ca        1 MOL     -0.259637
     91 C33        -0.4410    2.9640    5.1020 ca        1 MOL      0.301810
     92 O14         0.2050    3.7520    5.9680 oh        1 MOL     -0.433508
     93 H37        -1.8910   -1.2170    0.0780 hn        1 MOL      0.111819
     94 H38        -1.2290   -1.6400    2.9520 h1        1 MOL      0.066189
     95 H39        -3.2200   -0.3160    2.9500 hc        1 MOL      0.141484
     96 H40        -2.5750    0.7250    1.6170 hc        1 MOL      0.141484
     97 H41        -2.0550   -0.0600    5.1920 ha        1 MOL      0.147020
     98 H42        -1.2510    2.4460    1.8050 ha        1 MOL      0.147020
     99 H43        -0.8970    1.5200    6.7140 ha        1 MOL      0.145782
    100 H44        -0.2090    4.1900    3.3570 ha        1 MOL      0.145782
    101 H45         0.5780    4.4960    5.4970 ho        1 MOL      0.342038
    102 N10         1.0190   -0.4630    2.8090 n         1 MOL      0.004381
    103 C34         2.4880   -0.3490    2.4820 c3        1 MOL     -0.187334
    104 C35         2.9870   -1.3380    1.4610 c         1 MOL     -0.012547
    105 O15         3.8150   -0.9970    0.6410 o         1 MOL     -0.342197
    106 C36         3.2250   -0.4080    3.8060 c3        1 MOL      0.153521
    107 C37         2.8930    0.7130    4.7950 c3        1 MOL     -0.207339
    108 C38         4.7450   -0.4570    3.5340 c3        1 MOL     -0.319723
    109 C39         2.8450    2.0510    4.1750 c3        1 MOL     -0.055817
    110 H46         0.7210   -0.8020    3.7130 hn        1 MOL      0.206989
    111 H47         2.7950    0.6390    2.1250 h1        1 MOL      0.159140
    112 H48         2.9930   -1.3460    4.3100 hc        1 MOL     -0.013975
    113 H49         3.7430    0.6980    5.4890 hc        1 MOL      0.090915
    114 H50         1.9680    0.5340    5.3280 hc        1 MOL      0.090915
    115 H51         5.1920   -1.4060    3.2320 hc        1 MOL      0.102656
    116 H52         4.9650    0.2690    2.7450 hc        1 MOL      0.102656
    117 H53         5.2430   -0.1520    4.4440 hc        1 MOL      0.102656
    118 H54         2.7260    2.7510    5.0010 hc        1 MOL      0.022667
    119 H55         3.7350    2.4580    3.6910 hc        1 MOL      0.022667
    120 H56         2.0380    2.1870    3.4490 hc        1 MOL      0.022667
    121 N11         2.4030   -2.5240    1.4410 n         1 MOL      0.020699
    122 C40         2.6460   -3.6740    0.4990 c3        1 MOL      0.007827
    123 C41         4.1920   -3.9340    0.2370 c         1 MOL      0.326045
    124 O16         4.6350   -3.9340   -0.9270 o         1 MOL     -0.438711
    125 C42         1.9980   -4.9260    1.0420 c3        1 MOL      0.141526
    126 O17         0.6120   -4.6060    1.3110 oh        1 MOL     -0.556126
    127 H57         1.7140   -2.6780    2.1690 hn        1 MOL      0.187690
    128 H58         2.1200   -3.4940   -0.4300 h1        1 MOL      0.088616
    129 H59         2.5710   -5.2730    1.9000 h1        1 MOL      0.039753
    130 H60         2.0480   -5.5920    0.1790 h1        1 MOL      0.039753
    131 H61         0.0870   -4.5370    0.5210 ho        1 MOL      0.366389
    132 N12         5.0310   -4.0440    1.2890 n         1 MOL     -0.377431
    133 C43         6.4990   -4.1810    1.1870 c3        1 MOL      0.250630
    134 C44         7.1720   -3.1960    0.2130 c         1 MOL      0.405616
    135 O18         8.2230   -3.5870   -0.4170 o         1 MOL     -0.519085
    136 C45         6.8410   -5.6550    0.8980 c3        1 MOL     -0.339817
    137 H62         4.6850   -4.0330    2.2330 hn        1 MOL      0.271023
    138 H63         6.8590   -3.8430    2.1620 h1        1 MOL      0.046649
    139 H64         6.2170   -6.2820    1.5490 hc        1 MOL      0.100747
    140 H65         6.7810   -5.8780   -0.1620 hc        1 MOL      0.100747
    141 H66         7.8570   -5.8210    1.2710 hc        1 MOL      0.100747
    142 N13         6.6810   -1.9560    0.0090 n         1 MOL     -0.419071
    143 C46         7.2320   -0.9760   -0.9760 c3        1 MOL      0.523303
    144 C47         7.7720    0.3030   -0.4150 c         1 MOL      0.243384
    145 O19         7.1780    0.8870    0.4900 o         1 MOL     -0.451157
    146 C48         6.3390   -0.8120   -2.1660 c3        1 MOL     -0.120271
    147 H67         5.7660   -1.7430    0.3560 hn        1 MOL      0.137600
    148 H68         8.0790   -1.5480   -1.3680 h1        1 MOL     -0.050898
    149 H69         6.2970   -1.8010   -2.6350 hc        1 MOL      0.021409
    150 H70         5.3780   -0.3810   -1.8920 hc        1 MOL      0.021409
    151 H71         6.7940   -0.2090   -2.9530 hc        1 MOL      0.021409
    152 N14         8.8470    0.7860   -1.0320 n         1 MOL     -0.496248
    153 C49         9.4970    2.1350   -0.7420 c3        1 MOL      0.037538
    154 C50         9.7110    2.4770    0.7590 c         1 MOL      0.333510
    155 O20         9.3700    3.5260    1.2930 o         1 MOL     -0.450825
    156 C51         8.6440    3.2510   -1.4670 c3        1 MOL      0.073396
    157 C52         9.5520    4.4620   -1.6720 c3        1 MOL     -0.269184
    158 C53         8.9560    5.4510   -2.7420 c         1 MOL      0.715435
    159 O21         9.3670    5.3810   -3.9150 o         1 MOL     -0.676440
    160 O22         8.0910    6.2140   -2.3480 o         1 MOL     -0.676440
    161 H72         9.0720    0.3830   -1.9360 hn        1 MOL      0.307749
    162 H73        10.4660    2.1280   -1.2410 h1        1 MOL      0.062319
    163 H74         7.7650    3.6060   -0.9190 hc        1 MOL      0.019404
    164 H75         8.2650    2.9260   -2.4340 hc        1 MOL      0.019404
    165 H76        10.5200    4.0770   -1.9990 hc        1 MOL      0.050830
    166 H77         9.6760    4.9650   -0.7180 hc        1 MOL      0.050830
    167 N15        10.2240    1.4800    1.4270 n         1 MOL     -0.148713
    168 C54        10.3590    1.5960    2.8650 c3        1 MOL     -0.148484
    169 H78         9.5490    2.2100    3.2570 h1        1 MOL      0.079236
    170 H79        10.3130    0.6040    3.3150 h1        1 MOL      0.079236
    171 H80        11.3160    2.0600    3.1040 h1        1 MOL      0.079236
    172 H81        10.5460    0.6830    0.9020 hn        1 MOL      0.212001
    173 Ca1         0.5620    0.9810   -1.7320 Ca        1 MOL      1.780318
    174 O23         1.3150    3.3640   -3.1350 oh        1 MOL     -0.805701
    175 H82         1.2390    3.4410   -4.0810 ho        1 MOL      0.405674
    176 H83         1.0540    4.2270   -2.7970 ho        1 MOL      0.405674
    177 O24        -0.5130    1.0920   -4.1430 oh        1 MOL     -0.805701
    178 H84        -1.1790    1.7520   -4.3440 ho        1 MOL      0.405674
    179 H85        -0.2430    0.7550   -4.9940 ho        1 MOL      0.405674
    180 O25         3.2680    1.0500   -0.9110 oh        1 MOL     -0.805701
    181 H86         3.7890    0.3980   -0.4520 ho        1 MOL      0.405674
    182 H87         3.6730    1.8960   -0.6740 ho        1 MOL      0.405674
    183 O26         1.0180    3.0460   -0.0600 oh        1 MOL     -0.805701
    184 H88         1.8380    3.3470    0.3290 ho        1 MOL      0.405674
    185 H89         0.3790    3.7250    0.1530 ho        1 MOL      0.405674
    186 O27         2.3660    0.5250   -3.6140 oh        1 MOL     -0.805701
    187 H90         3.0200    1.2080   -3.7630 ho        1 MOL      0.405674
    188 H91         2.4730   -0.0790   -4.3510 ho        1 MOL      0.405674
@<TRIPOS>BOND
     1    1    2 1   
     2    1    4 1   
     3    1    5 1   
     4    1    6 1   
     5    2    3 2   
     6    2    7 1   
     7    7    8 1   
     8    7   15 1   
     9    8    9 1   
    10    8   11 1   
    11    8   16 1   
    12    9   10 2   
    13    9   19 1   
    14   11   12 1   
    15   11   17 1   
    16   11   18 1   
    17   12   13 1   
    18   12   14 1   
    19   19   20 1   
    20   19   28 1   
    21   20   21 1   
    22   20   23 1   
    23   20   29 1   
    24   21   22 2   
    25   21   41 1   
    26   23   24 1   
    27   23   30 1   
    28   23   31 1   
    29   24   25 1   
    30   24   32 1   
    31   24   33 1   
    32   25   26 1   
    33   25   34 1   
    34   25   35 1   
    35   26   27 1   
    36   26   36 1   
    37   26   37 1   
    38   27   38 1   
    39   27   39 1   
    40   27   40 1   
    41   41   42 1   
    42   41   49 1   
    43   42   43 1   
    44   42   45 1   
    45   42   50 1   
    46   43   44 2   
    47   43   53 1   
    48   45   46 1   
    49   45   51 1   
    50   45   52 1   
    51   46   47 1   
    52   46   48 1   
    53   53   54 1   
    54   53   57 1   
    55   54   55 1   
    56   54   58 1   
    57   54   59 1   
    58   55   56 2   
    59   55   60 1   
    60   60   61 1   
    61   60   68 1   
    62   61   62 1   
    63   61   64 1   
    64   61   69 1   
    65   62   63 2   
    66   62   74 1   
    67   64   65 1   
    68   64   70 1   
    69   64   71 1   
    70   65   66 1   
    71   65   67 2   
    72   66   72 1   
    73   66   73 1   
    74   74   75 1   
    75   74   78 1   
    76   75   76 1   
    77   75   79 1   
    78   75   80 1   
    79   76   77 2   
    80   76   81 1   
    81   81   82 1   
    82   81   93 1   
    83   82   83 1   
    84   82   85 1   
    85   82   94 1   
    86   83   84 2   
    87   83  102 1   
    88   85   86 1   
    89   85   95 1   
    90   85   96 1   
    91   86   87 ar  
    92   86   88 ar  
    93   87   89 ar  
    94   87   97 1   
    95   88   90 ar  
    96   88   98 1   
    97   89   91 ar  
    98   89   99 1   
    99   90   91 ar  
   100   90  100 1   
   101   91   92 1   
   102   92  101 1   
   103  102  103 1   
   104  102  110 1   
   105  103  104 1   
   106  103  106 1   
   107  103  111 1   
   108  104  105 2   
   109  104  121 1   
   110  106  107 1   
   111  106  108 1   
   112  106  112 1   
   113  107  109 1   
   114  107  113 1   
   115  107  114 1   
   116  108  115 1   
   117  108  116 1   
   118  108  117 1   
   119  109  118 1   
   120  109  119 1   
   121  109  120 1   
   122  121  122 1   
   123  121  127 1   
   124  122  123 1   
   125  122  125 1   
   126  122  128 1   
   127  123  124 2   
   128  123  132 1   
   129  125  126 1   
   130  125  129 1   
   131  125  130 1   
   132  126  131 1   
   133  132  133 1   
   134  132  137 1   
   135  133  134 1   
   136  133  136 1   
   137  133  138 1   
   138  134  135 2   
   139  134  142 1   
   140  136  139 1   
   141  136  140 1   
   142  136  141 1   
   143  142  143 1   
   144  142  147 1   
   145  143  144 1   
   146  143  146 1   
   147  143  148 1   
   148  144  145 2   
   149  144  152 1   
   150  146  149 1   
   151  146  150 1   
   152  146  151 1   
   153  152  153 1   
   154  152  161 1   
   155  153  154 1   
   156  153  156 1   
   157  153  162 1   
   158  154  155 2   
   159  154  167 1   
   160  156  157 1   
   161  156  163 1   
   162  156  164 1   
   163  157  158 1   
   164  157  165 1   
   165  157  166 1   
   166  158  159 1   
   167  158  160 1   
   168  167  168 1   
   169  167  172 1   
   170  168  169 1   
   171  168  170 1   
   172  168  171 1   
   173  174  175 1   
   174  174  176 1   
   175  177  178 1   
   176  177  179 1   
   177  180  181 1   
   178  180  182 1   
   179  183  184 1   
   180  183  185 1   
   181  186  187 1   
   182  186  188 1   
@<TRIPOS>SUBSTRUCTURE
     1 MOL         1 TEMP              0 ****  ****    0 ROOT
