@<TRIPOS>MOLECULE
MOL
  201   193     1     0     0
SMALL
resp


@<TRIPOS>ATOM
      1 C1          3.2340   -5.7480    1.9970 c3        1 MOL     -0.271460
      2 C2          4.1750   -4.5610    2.3060 c         1 MOL      0.618388
      3 O1          3.8830   -3.7540    3.1130 o         1 MOL     -0.571117
      4 H1          2.4900   -5.8370    2.7890 hc        1 MOL      0.064040
      5 H2          2.7320   -5.5760    1.0450 hc        1 MOL      0.064040
      6 H3          3.8160   -6.6670    1.9400 hc        1 MOL      0.064040
      7 N1          5.3580   -4.4620    1.6790 n         1 MOL     -0.086670
      8 C3          6.3830   -3.5270    2.0700 c3        1 MOL     -0.558447
      9 C4          6.2870   -2.0790    1.4840 c         1 MOL      0.390112
     10 O2          5.8900   -1.8770    0.3480 o         1 MOL     -0.466593
     11 C5          7.7870   -4.1230    1.8380 c3        1 MOL      0.038789
     12 C6          8.0670   -4.7090    0.4470 c         1 MOL      0.680806
     13 O3          8.9110   -5.6300    0.3700 o         1 MOL     -0.695987
     14 O4          7.3070   -4.3600   -0.4760 o         1 MOL     -0.695987
     15 H4          5.5850   -5.1070    0.9440 hn        1 MOL      0.189062
     16 H5          6.3040   -3.3890    3.1490 h1        1 MOL      0.176349
     17 H6          8.0630   -4.9260    2.5140 hc        1 MOL      0.038910
     18 H7          8.5460   -3.3510    1.8960 hc        1 MOL      0.038910
     19 N2          6.9100   -1.1100    2.1830 n         1 MOL     -0.316696
     20 C7          6.8060    0.3930    2.0050 c3        1 MOL      0.211128
     21 C8          8.0760    0.9790    1.4960 c         1 MOL      0.369143
     22 O5          8.9130    1.4190    2.2880 o         1 MOL     -0.572195
     23 C9          6.2650    1.0380    3.3950 c3        1 MOL     -0.567503
     24 C10         6.1130    2.5800    3.3060 c3        1 MOL      0.343514
     25 C11         5.7000    3.2830    4.5670 c3        1 MOL     -0.145223
     26 C12         5.1570    4.6320    4.2790 c3        1 MOL      0.101982
     27 N3          6.0330    5.5080    3.4020 n4        1 MOL     -0.378467
     28 H8          7.2970   -1.3550    3.0770 hn        1 MOL      0.290492
     29 H9          6.0450    0.7110    1.2940 h1        1 MOL      0.099092
     30 H10         6.9250    0.7180    4.1950 hc        1 MOL      0.156713
     31 H11         5.3220    0.5810    3.6780 hc        1 MOL      0.156713
     32 H12         5.3260    2.7930    2.5860 hc        1 MOL     -0.025291
     33 H13         7.0170    3.1190    3.0190 hc        1 MOL     -0.025291
     34 H14         6.5410    3.3090    5.2560 hc        1 MOL      0.058341
     35 H15         4.8330    2.7530    4.9850 hc        1 MOL      0.058341
     36 H16         4.9900    5.1350    5.2310 hx        1 MOL      0.058927
     37 H17         4.1470    4.6080    3.8620 hx        1 MOL      0.058927
     38 H18         6.1430    5.0260    2.5170 hn        1 MOL      0.324316
     39 H19         5.5940    6.4050    3.1970 hn        1 MOL      0.324316
     40 H20         6.9440    5.8080    3.7140 hn        1 MOL      0.324316
     41 N4          8.4260    0.7250    0.2630 n         1 MOL     -0.026216
     42 C13         9.6470    1.0560   -0.4900 c3        1 MOL      0.162168
     43 C14         9.4480    1.7610   -1.8870 c         1 MOL      0.456531
     44 O6          9.7070    1.1320   -2.8760 o         1 MOL     -0.519626
     45 C15        10.5250   -0.1870   -0.5740 c3        1 MOL     -0.194926
     46 C16         9.9230   -1.5480   -0.9440 c         1 MOL      0.553822
     47 O7          8.7460   -1.6470   -1.3880 o         1 MOL     -0.619602
     48 O8         10.7400   -2.5390   -0.8750 o         1 MOL     -0.619602
     49 H21         7.7190    0.3410   -0.3520 hn        1 MOL     -0.015369
     50 H22        10.2540    1.7470    0.1060 h1        1 MOL      0.019441
     51 H23        10.9920   -0.3320    0.4020 hc        1 MOL      0.070347
     52 H24        11.3570   -0.0050   -1.2390 hc        1 MOL      0.070347
     53 N5          9.0150    2.9580   -1.9900 n         1 MOL     -0.432218
     54 C17         8.7750    3.8240   -0.8140 c3        1 MOL     -0.057775
     55 C18         7.2540    3.9650   -0.5180 c         1 MOL      0.501322
     56 O9          6.9200    3.8890    0.6140 o         1 MOL     -0.619588
     57 H25         9.0460    3.4300   -2.8760 hn        1 MOL      0.338104
     58 H26         8.9990    4.8230   -1.1970 h1        1 MOL      0.077320
     59 H27         9.2480    3.5620    0.1230 h1        1 MOL      0.077320
     60 N6          6.4140    4.2140   -1.5220 n         1 MOL     -0.324265
     61 C19         4.9920    4.5990   -1.3120 c3        1 MOL      0.260654
     62 C20         4.0640    3.3920   -1.2840 c         1 MOL      0.427056
     63 O10         4.4970    2.2570   -1.3590 o         1 MOL     -0.535964
     64 C21         4.5120    5.6290   -2.3600 c3        1 MOL     -0.430571
     65 C22         4.9130    5.2510   -3.7410 c         1 MOL      0.727237
     66 O11         4.8610    4.0690   -4.0550 o         1 MOL     -0.689114
     67 O12         5.5390    6.0710   -4.5130 o         1 MOL     -0.689114
     68 H28         6.7030    3.9020   -2.4410 hn        1 MOL      0.250654
     69 H29         4.9630    5.0110   -0.3090 h1        1 MOL     -0.020403
     70 H30         4.9480    6.5910   -2.1030 hc        1 MOL      0.088333
     71 H31         3.4200    5.6390   -2.3070 hc        1 MOL      0.088333
     72 N7          2.7530    3.6030   -0.9880 n         1 MOL     -0.394336
     73 C23         1.6490    2.6340   -1.1260 c3        1 MOL      0.081662
     74 C24         1.3070    1.9380    0.1450 c         1 MOL      0.570489
     75 O13         1.3850    2.4350    1.2700 o         1 MOL     -0.551987
     76 H32         2.5200    4.5250   -0.6300 hn        1 MOL      0.257850
     77 H33         2.0010    1.8640   -1.8180 h1        1 MOL      0.045501
     78 H34         0.7610    3.0620   -1.5840 h1        1 MOL      0.045501
     79 N8          0.8240    0.7040    0.0020 n         1 MOL     -0.554385
     80 C25         0.6520   -0.2830    1.0710 c3        1 MOL      0.069053
     81 C26        -0.5450   -1.1750    0.8120 c         1 MOL      0.353365
     82 O14        -0.5950   -1.6710   -0.3240 o         1 MOL     -0.515439
     83 C27         1.9630   -1.0980    1.3260 c3        1 MOL      0.250344
     84 C28         3.1510   -0.2720    1.6880 c3        1 MOL     -0.377680
     85 O15         1.7320   -1.8640    2.5130 oh        1 MOL     -0.682020
     86 H35         0.7040    0.4120   -0.9550 hn        1 MOL      0.274553
     87 H36         0.4070    0.2490    1.9900 h1        1 MOL      0.092175
     88 H37         2.1870   -1.8030    0.5160 h1        1 MOL      0.097836
     89 H38         2.5770   -2.1030    2.9080 ho        1 MOL      0.415569
     90 H39         2.8560    0.5870    2.2920 hc        1 MOL      0.113561
     91 H40         3.9270   -0.8410    2.2060 hc        1 MOL      0.113561
     92 H41         3.5930   -0.0240    0.7200 hc        1 MOL      0.113561
     93 N9         -1.3770   -1.4560    1.7690 n         1 MOL     -0.077963
     94 C29        -2.6360   -2.2660    1.5550 c3        1 MOL     -0.129231
     95 C30        -3.7220   -1.4930    0.7010 c         1 MOL      0.484945
     96 O16        -4.5000   -2.1000   -0.0400 o         1 MOL     -0.499683
     97 C31        -3.2710   -2.7220    2.8720 c3        1 MOL      0.178139
     98 C32        -2.5080   -2.7950    4.2050 c3        1 MOL     -0.180829
     99 C33        -3.9550   -4.1170    2.6090 c3        1 MOL     -0.198936
    100 C34        -1.2890   -3.7880    4.3360 c3        1 MOL     -0.053519
    101 H42        -1.2620   -0.9510    2.6350 hn        1 MOL      0.212095
    102 H43        -2.3770   -3.1670    1.0020 h1        1 MOL      0.114840
    103 H44        -4.1130   -2.0640    3.1290 hc        1 MOL     -0.009650
    104 H45        -3.1990   -3.0530    5.0140 hc        1 MOL      0.052936
    105 H46        -2.0500   -1.8540    4.5060 hc        1 MOL      0.052936
    106 H47        -4.6540   -4.3790    3.3980 hc        1 MOL      0.056295
    107 H48        -4.4840   -3.9800    1.6600 hc        1 MOL      0.056295
    108 H49        -3.2510   -4.9430    2.4570 hc        1 MOL      0.056295
    109 H50        -1.5570   -4.8150    4.0930 hc        1 MOL      0.026020
    110 H51        -0.5190   -3.4220    3.6510 hc        1 MOL      0.026020
    111 H52        -0.9000   -3.6850    5.3440 hc        1 MOL      0.026020
    112 N10        -3.5840   -0.1770    0.7600 n         1 MOL     -0.356998
    113 C35        -4.3760    0.7770   -0.0390 c3        1 MOL      0.096506
    114 C36        -5.0930    1.7700    0.8280 c         1 MOL      0.547559
    115 O17        -4.6280    2.0430    1.9740 o         1 MOL     -0.545692
    116 C37        -3.4770    1.4290   -1.0970 c3        1 MOL      0.269031
    117 C38        -3.0850    0.4420   -2.1750 c3        1 MOL     -0.399181
    118 O18        -4.1680    2.4330   -1.7750 oh        1 MOL     -0.618181
    119 H53        -3.0360    0.1620    1.5340 hn        1 MOL      0.176374
    120 H54        -5.1760    0.2620   -0.5690 h1        1 MOL      0.054148
    121 H55        -2.6210    1.9520   -0.6850 h1        1 MOL      0.023196
    122 H56        -3.5940    2.4750   -2.5470 ho        1 MOL      0.397573
    123 H57        -2.9550    0.9700   -3.1260 hc        1 MOL      0.114721
    124 H58        -2.2160   -0.1980   -2.0210 hc        1 MOL      0.114721
    125 H59        -3.8760   -0.2040   -2.5460 hc        1 MOL      0.114721
    126 N11        -6.2900    2.2820    0.5110 n         1 MOL     -0.510007
    127 C39        -7.0990    3.0860    1.4250 c3        1 MOL      0.021308
    128 C40        -8.5190    2.5230    1.6670 c         1 MOL      0.714320
    129 O19        -8.9600    2.4840    2.8190 o         1 MOL     -0.580508
    130 C41        -7.0500    4.6070    0.9390 c3        1 MOL      0.340642
    131 C42        -7.7170    5.5180    1.9630 c3        1 MOL     -0.470250
    132 O20        -7.8110    4.7560   -0.2330 oh        1 MOL     -0.656061
    133 H60        -6.6700    1.9300   -0.3620 hn        1 MOL      0.333986
    134 H61        -6.7120    3.0360    2.4480 h1        1 MOL      0.086020
    135 H62        -6.0190    4.9550    0.8430 h1        1 MOL      0.058152
    136 H63        -8.4060    5.5060   -0.1790 ho        1 MOL      0.411467
    137 H64        -8.7900    5.3280    1.9630 hc        1 MOL      0.117323
    138 H65        -7.0800    5.3730    2.8420 hc        1 MOL      0.117323
    139 H66        -7.5650    6.5570    1.6640 hc        1 MOL      0.117323
    140 N12        -9.1820    1.9690    0.6320 n         1 MOL     -0.634089
    141 C43       -10.4070    1.2650    0.6620 c3        1 MOL      0.123352
    142 C44       -10.3120    0.2190   -0.4180 c         1 MOL      0.600928
    143 O21        -9.7820    0.4860   -1.5420 o         1 MOL     -0.546083
    144 C45       -11.5410    2.2510    0.5090 c3        1 MOL     -0.147754
    145 C46       -12.9240    1.7240    0.5490 c3        1 MOL      0.104079
    146 C47       -13.8420    2.8640    0.2180 c3        1 MOL      0.009271
    147 C48       -15.2460    2.3150    0.0160 c3        1 MOL      0.065069
    148 N13       -16.1420    3.4940   -0.3400 n4        1 MOL     -0.228270
    149 H67        -8.8490    2.1510   -0.3050 hn        1 MOL      0.303816
    150 H68       -10.5570    0.7130    1.5860 h1        1 MOL      0.094289
    151 H69       -11.4240    2.8320   -0.4080 hc        1 MOL      0.063232
    152 H70       -11.5180    3.0320    1.2760 hc        1 MOL      0.063232
    153 H71       -13.1930    1.3400    1.5280 hc        1 MOL     -0.011460
    154 H72       -13.0940    0.9360   -0.1830 hc        1 MOL     -0.011460
    155 H73       -13.5220    3.3060   -0.7280 hc        1 MOL      0.004275
    156 H74       -13.8910    3.6500    0.9680 hc        1 MOL      0.004275
    157 H75       -15.5480    1.7920    0.9320 hx        1 MOL      0.072409
    158 H76       -15.2040    1.6050   -0.8090 hx        1 MOL      0.072409
    159 H77       -15.8120    3.9350   -1.1880 hn        1 MOL      0.240551
    160 H78       -17.1010    3.2310   -0.4540 hn        1 MOL      0.240551
    161 H79       -16.0970    4.2090    0.3810 hn        1 MOL      0.240551
    162 N14       -10.8880   -0.9720   -0.2010 n         1 MOL     -0.768881
    163 C49       -10.9620   -1.9150   -1.4100 c3        1 MOL      0.812410
    164 C50        -9.8140   -2.9370   -1.5050 c         1 MOL      0.170343
    165 O22        -9.1960   -3.0430   -2.5440 o         1 MOL     -0.491745
    166 C51       -12.3250   -2.6050   -1.4840 c3        1 MOL     -0.550281
    167 C52       -12.4520   -3.6490   -2.6240 c3        1 MOL     -0.053904
    168 C53       -13.9220   -4.0530   -2.8220 c         1 MOL      0.655336
    169 O23       -14.5200   -3.6700   -3.9230 o         1 MOL     -0.653347
    170 O24       -14.4180   -4.8720   -2.0430 o         1 MOL     -0.653347
    171 H80       -11.2540   -1.2210    0.7120 hn        1 MOL      0.309532
    172 H81       -10.8180   -1.3620   -2.3420 h1        1 MOL     -0.033420
    173 H82       -12.9890   -1.7420   -1.5510 hc        1 MOL      0.122582
    174 H83       -12.4570   -3.1530   -0.5480 hc        1 MOL      0.122582
    175 H84       -11.8920   -4.5500   -2.3780 hc        1 MOL      0.047829
    176 H85       -12.0060   -3.2540   -3.5280 hc        1 MOL      0.047829
    177 N15        -9.3330   -3.6590   -0.4560 n         1 MOL     -0.271514
    178 C54        -9.8220   -3.9080    0.8770 c3        1 MOL     -0.012976
    179 H86        -9.9870   -4.9770    1.0100 h1        1 MOL      0.040029
    180 H87        -9.0890   -3.5610    1.6050 h1        1 MOL      0.040029
    181 H88       -10.7620   -3.3750    1.0250 h1        1 MOL      0.040029
    182 H89        -8.4060   -4.0040   -0.6250 hn        1 MOL      0.290703
    183 Ca1         6.3220   -2.4380   -2.0500 Ca        1 MOL      1.714617
    184 O25         3.8550   -1.3550   -2.7300 oh        1 MOL     -0.840189
    185 H90         4.2770   -0.5270   -2.9690 ho        1 MOL      0.416234
    186 H91         2.9220   -1.1520   -2.7560 ho        1 MOL      0.416234
    187 O26         6.2080   -1.3000   -4.4150 oh        1 MOL     -0.840189
    188 H92         6.8990   -1.1180   -5.0490 ho        1 MOL      0.416234
    189 H93         5.4610   -0.7790   -4.7110 ho        1 MOL      0.416234
    190 O27         5.9750    0.1970   -1.8380 oh        1 MOL     -0.840189
    191 H94         6.4370    0.6340   -2.5460 ho        1 MOL      0.416234
    192 H95         5.3830    0.8660   -1.4760 ho        1 MOL      0.416234
    193 O28         8.5330   -3.5230   -3.0990 oh        1 MOL     -0.840189
    194 H96         8.8480   -4.4310   -3.0810 ho        1 MOL      0.416234
    195 H97         8.9860   -3.0950   -2.3720 ho        1 MOL      0.416234
    196 O29         5.3660   -4.2490   -3.8990 oh        1 MOL     -0.840189
    197 H98         5.9470   -4.5390   -4.6010 ho        1 MOL      0.416234
    198 H99         4.4940   -4.2530   -4.2870 ho        1 MOL      0.416234
    199 O30         4.0270   -3.9060   -1.1270 oh        1 MOL     -0.840189
    200 H100        3.0770   -3.7850   -1.1260 ho        1 MOL      0.416234
    201 H101        4.1670   -4.7500   -1.5510 ho        1 MOL      0.416234
@<TRIPOS>BOND
     1    1    2 1   
     2    1    4 1   
     3    1    5 1   
     4    1    6 1   
     5    2    3 2   
     6    2    7 1   
     7    7    8 1   
     8    7   15 1   
     9    8    9 1   
    10    8   11 1   
    11    8   16 1   
    12    9   10 2   
    13    9   19 1   
    14   11   12 1   
    15   11   17 1   
    16   11   18 1   
    17   12   13 1   
    18   12   14 1   
    19   19   20 1   
    20   19   28 1   
    21   20   21 1   
    22   20   23 1   
    23   20   29 1   
    24   21   22 2   
    25   21   41 1   
    26   23   24 1   
    27   23   30 1   
    28   23   31 1   
    29   24   25 1   
    30   24   32 1   
    31   24   33 1   
    32   25   26 1   
    33   25   34 1   
    34   25   35 1   
    35   26   27 1   
    36   26   36 1   
    37   26   37 1   
    38   27   38 1   
    39   27   39 1   
    40   27   40 1   
    41   41   42 1   
    42   41   49 1   
    43   42   43 1   
    44   42   45 1   
    45   42   50 1   
    46   43   44 2   
    47   43   53 1   
    48   45   46 1   
    49   45   51 1   
    50   45   52 1   
    51   46   47 1   
    52   46   48 1   
    53   53   54 1   
    54   53   57 1   
    55   54   55 1   
    56   54   58 1   
    57   54   59 1   
    58   55   56 2   
    59   55   60 1   
    60   60   61 1   
    61   60   68 1   
    62   61   62 1   
    63   61   64 1   
    64   61   69 1   
    65   62   63 2   
    66   62   72 1   
    67   64   65 1   
    68   64   70 1   
    69   64   71 1   
    70   65   66 1   
    71   65   67 1   
    72   72   73 1   
    73   72   76 1   
    74   73   74 1   
    75   73   77 1   
    76   73   78 1   
    77   74   75 2   
    78   74   79 1   
    79   79   80 1   
    80   79   86 1   
    81   80   81 1   
    82   80   83 1   
    83   80   87 1   
    84   81   82 2   
    85   81   93 1   
    86   83   84 1   
    87   83   85 1   
    88   83   88 1   
    89   84   90 1   
    90   84   91 1   
    91   84   92 1   
    92   85   89 1   
    93   93   94 1   
    94   93  101 1   
    95   94   95 1   
    96   94   97 1   
    97   94  102 1   
    98   95   96 2   
    99   95  112 1   
   100   97   98 1   
   101   97   99 1   
   102   97  103 1   
   103   98  100 1   
   104   98  104 1   
   105   98  105 1   
   106   99  106 1   
   107   99  107 1   
   108   99  108 1   
   109  100  109 1   
   110  100  110 1   
   111  100  111 1   
   112  112  113 1   
   113  112  119 1   
   114  113  114 1   
   115  113  116 1   
   116  113  120 1   
   117  114  115 2   
   118  114  126 1   
   119  116  117 1   
   120  116  118 1   
   121  116  121 1   
   122  117  123 1   
   123  117  124 1   
   124  117  125 1   
   125  118  122 1   
   126  126  127 1   
   127  126  133 1   
   128  127  128 1   
   129  127  130 1   
   130  127  134 1   
   131  128  129 2   
   132  128  140 1   
   133  130  131 1   
   134  130  132 1   
   135  130  135 1   
   136  131  137 1   
   137  131  138 1   
   138  131  139 1   
   139  132  136 1   
   140  140  141 1   
   141  140  149 1   
   142  141  142 1   
   143  141  144 1   
   144  141  150 1   
   145  142  143 2   
   146  142  162 1   
   147  144  145 1   
   148  144  151 1   
   149  144  152 1   
   150  145  146 1   
   151  145  153 1   
   152  145  154 1   
   153  146  147 1   
   154  146  155 1   
   155  146  156 1   
   156  147  148 1   
   157  147  157 1   
   158  147  158 1   
   159  148  159 1   
   160  148  160 1   
   161  148  161 1   
   162  162  163 1   
   163  162  171 1   
   164  163  164 1   
   165  163  166 1   
   166  163  172 1   
   167  164  165 2   
   168  164  177 1   
   169  166  167 1   
   170  166  173 1   
   171  166  174 1   
   172  167  168 1   
   173  167  175 1   
   174  167  176 1   
   175  168  169 1   
   176  168  170 1   
   177  177  178 1   
   178  177  182 1   
   179  178  179 1   
   180  178  180 1   
   181  178  181 1   
   182  184  185 1   
   183  184  186 1   
   184  187  188 1   
   185  187  189 1   
   186  190  191 1   
   187  190  192 1   
   188  193  194 1   
   189  193  195 1   
   190  196  197 1   
   191  196  198 1   
   192  199  200 1   
   193  199  201 1   
@<TRIPOS>SUBSTRUCTURE
     1 MOL         1 TEMP              0 ****  ****    0 ROOT
