@<TRIPOS>MOLECULE
MOL
  192   187     1     0     0
SMALL
resp


@<TRIPOS>ATOM
      1 C1          3.9930    3.9500    5.4970 c3        1 MOL     -0.274235
      2 C2          4.0680    3.3970    4.0160 c         1 MOL      0.660876
      3 O1          3.6520    4.0360    3.0760 o         1 MOL     -0.543321
      4 H1          2.9890    4.3260    5.6930 hc        1 MOL      0.069432
      5 H2          4.2250    3.1470    6.1970 hc        1 MOL      0.069432
      6 H3          4.7140    4.7600    5.6200 hc        1 MOL      0.069432
      7 N1          4.6150    2.2080    3.8080 n         1 MOL     -0.604553
      8 C3          4.6140    1.3790    2.5620 c3        1 MOL     -0.010955
      9 C4          3.2660    0.6890    2.1960 c         1 MOL      0.375929
     10 O2          3.1330    0.1970    1.0490 o         1 MOL     -0.489341
     11 C5          5.7170    0.3920    2.4600 c3        1 MOL     -0.119714
     12 C6          6.0110   -0.4260    3.7400 c         1 MOL      0.721660
     13 O3          6.1050   -1.6690    3.7000 o         1 MOL     -0.709741
     14 O4          6.1490    0.1470    4.8050 o         1 MOL     -0.709741
     15 H4          5.1770    1.8570    4.5660 hn        1 MOL      0.342600
     16 H5          4.8180    2.1380    1.8090 h1        1 MOL      0.205927
     17 H6          6.6610    0.8260    2.1160 hc        1 MOL      0.053890
     18 H7          5.3830   -0.2740    1.6640 hc        1 MOL      0.053890
     19 N2          2.2370    0.9280    3.0580 n         1 MOL     -0.242357
     20 C7          0.8540    0.3860    2.8650 c3        1 MOL      0.115714
     21 C8         -0.2830    1.4580    2.9720 c         1 MOL      0.410196
     22 O5         -0.3320    2.2560    3.9040 o         1 MOL     -0.519584
     23 C9          0.4960   -0.6730    3.9610 c3        1 MOL     -0.166832
     24 C10         1.3610   -1.9380    3.8180 c3        1 MOL      0.052396
     25 C11         2.7180   -1.9550    4.5860 c3        1 MOL     -0.194376
     26 C12         3.4020   -3.3030    4.2880 c3        1 MOL      0.162392
     27 N3          4.5830   -3.5280    5.1420 n4        1 MOL     -0.404127
     28 H8          2.4590    1.4150    3.9110 hn        1 MOL      0.240527
     29 H9          0.7660    0.0190    1.8500 h1        1 MOL      0.111010
     30 H10        -0.5360   -0.9820    3.8000 hc        1 MOL      0.076526
     31 H11         0.4800   -0.1100    4.8930 hc        1 MOL      0.076526
     32 H12         1.5100   -2.2300    2.7720 hc        1 MOL      0.030604
     33 H13         0.8020   -2.7380    4.3060 hc        1 MOL      0.030604
     34 H14         2.5340   -1.7710    5.6370 hc        1 MOL      0.054028
     35 H15         3.3160   -1.1030    4.2710 hc        1 MOL      0.054028
     36 H16         3.5910   -3.3140    3.2160 hx        1 MOL      0.033595
     37 H17         2.6090   -4.0440    4.3660 hx        1 MOL      0.033595
     38 H18         4.2760   -3.4580    6.1030 hn        1 MOL      0.318480
     39 H19         5.0770   -4.3930    4.9420 hn        1 MOL      0.318480
     40 H20         5.2730   -2.7960    5.1610 hn        1 MOL      0.318480
     41 N4         -1.1590    1.5730    1.9640 n         1 MOL     -0.257352
     42 C13        -1.5910    0.6660    0.8850 c3        1 MOL     -0.178795
     43 C14        -1.8090   -0.7740    1.3290 c         1 MOL      0.400334
     44 O6         -1.0260   -1.6500    0.9740 o         1 MOL     -0.520393
     45 C15        -0.7450    0.8770   -0.3590 c3        1 MOL     -0.051212
     46 C16        -0.8110    2.2130   -1.1070 c         1 MOL      0.574482
     47 O7         -1.4080    3.2240   -0.5900 o         1 MOL     -0.721838
     48 O8         -0.3260    2.4730   -2.2010 o         1 MOL     -0.721838
     49 H21        -1.7230    2.4000    2.0690 hn        1 MOL      0.239635
     50 H22        -2.5610    1.0400    0.5620 h1        1 MOL      0.108999
     51 H23        -1.1230    0.1410   -1.0780 hc        1 MOL      0.098669
     52 H24         0.3040    0.6500   -0.1930 hc        1 MOL      0.098669
     53 N5         -2.8570   -1.1290    2.1140 n         1 MOL     -0.375657
     54 C17        -3.9740   -0.2540    2.4960 c3        1 MOL      0.060560
     55 C18        -5.0970   -1.0390    3.1540 c         1 MOL      0.525479
     56 O9         -4.8640   -2.1480    3.6130 o         1 MOL     -0.553612
     57 H25        -2.8840   -2.0430    2.5700 hn        1 MOL      0.298028
     58 H26        -4.3780    0.3640    1.6970 h1        1 MOL      0.047610
     59 H27        -3.6860    0.5060    3.2160 h1        1 MOL      0.047610
     60 N6         -6.2750   -0.4850    3.2700 n         1 MOL     -0.473213
     61 C19        -6.7980    0.8840    2.7800 c3        1 MOL      0.017807
     62 C20        -7.4980    0.7780    1.3360 c         1 MOL      0.456357
     63 O10        -7.9890   -0.3190    1.0500 o         1 MOL     -0.429422
     64 C21        -7.7440    1.6190    3.8290 c3        1 MOL     -0.024185
     65 C22        -8.7590    0.7180    4.4990 c         1 MOL      0.674429
     66 O11        -8.2980   -0.0850    5.3260 o         1 MOL     -0.661420
     67 O12        -9.9590    0.7200    4.1150 o         1 MOL     -0.661420
     68 H28        -6.9810   -1.0850    3.6480 hn        1 MOL      0.359630
     69 H29        -6.0260    1.6380    2.6300 h1        1 MOL      0.014836
     70 H30        -8.1970    2.5100    3.3780 hc        1 MOL     -0.015118
     71 H31        -7.1980    2.0510    4.6690 hc        1 MOL     -0.015118
     72 N7         -7.4800    1.8660    0.5730 n         1 MOL     -0.257162
     73 C23        -8.2330    2.0000   -0.7110 c3        1 MOL     -0.471297
     74 C24        -7.6620    1.0100   -1.7860 c         1 MOL      0.423709
     75 O13        -8.4270    0.4280   -2.6110 o         1 MOL     -0.527730
     76 H32        -7.0690    2.6680    1.0190 hn        1 MOL      0.250382
     77 H33        -8.0080    2.9940   -1.1110 h1        1 MOL      0.218242
     78 H34        -9.2860    1.8310   -0.5040 h1        1 MOL      0.218242
     79 N8         -6.4130    0.7000   -1.6840 n         1 MOL     -0.020864
     80 C25        -5.6510   -0.2000   -2.5420 c3        1 MOL     -0.081989
     81 C26        -4.6800   -0.9210   -1.6880 c         1 MOL      0.288907
     82 O14        -4.3570   -0.5250   -0.5670 o         1 MOL     -0.474986
     83 C27        -5.0980    0.4120   -3.8220 c3        1 MOL      0.274175
     84 C28        -4.3470    1.7110   -3.5710 c3        1 MOL     -0.302096
     85 O15        -6.1540    0.8190   -4.5890 oh        1 MOL     -0.610407
     86 H35        -5.8800    1.2520   -1.0250 hn        1 MOL      0.110316
     87 H36        -6.3420   -0.9790   -2.8700 h1        1 MOL      0.098483
     88 H37        -4.5580   -0.3710   -4.3620 h1        1 MOL      0.091262
     89 H38        -6.8190    1.1880   -3.9880 ho        1 MOL      0.373574
     90 H39        -3.4450    1.4570   -3.0110 hc        1 MOL      0.080050
     91 H40        -4.0930    2.1080   -4.5600 hc        1 MOL      0.080050
     92 H41        -4.9390    2.4970   -3.0880 hc        1 MOL      0.080050
     93 N9         -4.3490   -2.1290   -2.0490 n         1 MOL     -0.075910
     94 C29        -3.6830   -3.1060   -1.1020 c3        1 MOL     -0.098861
     95 C30        -2.4100   -3.6820   -1.5720 c         1 MOL      0.345999
     96 O16        -1.9040   -4.6080   -1.0160 o         1 MOL     -0.487722
     97 C31        -4.7180   -4.1130   -0.4860 c3        1 MOL      0.149164
     98 C32        -5.5750   -5.0070   -1.4080 c3        1 MOL     -0.092179
     99 C33        -5.7210   -3.4780    0.4530 c3        1 MOL     -0.117276
    100 C34        -4.8130   -6.2350   -2.0370 c3        1 MOL     -0.022122
    101 H42        -4.4780   -2.3790   -3.0260 hn        1 MOL      0.168895
    102 H43        -3.2690   -2.4430   -0.3350 h1        1 MOL      0.161549
    103 H44        -4.1450   -4.7310    0.1930 hc        1 MOL      0.026051
    104 H45        -6.0800   -4.3530   -2.1150 hc        1 MOL      0.023367
    105 H46        -6.3450   -5.5070   -0.8240 hc        1 MOL      0.023367
    106 H47        -6.3600   -4.2140    0.9480 hc        1 MOL      0.030351
    107 H48        -5.2830   -2.8370    1.2100 hc        1 MOL      0.030351
    108 H49        -6.3610   -2.8760   -0.1960 hc        1 MOL      0.030351
    109 H50        -5.5040   -6.9620   -2.4620 hc        1 MOL      0.003822
    110 H51        -4.1560   -5.9110   -2.8380 hc        1 MOL      0.003822
    111 H52        -4.1060   -6.5930   -1.2810 hc        1 MOL      0.003822
    112 N10        -1.7970   -2.9920   -2.5010 n         1 MOL     -0.065949
    113 C35        -0.6550   -3.4270   -3.2380 c3        1 MOL      0.036396
    114 C36         0.6290   -3.7380   -2.4000 c         1 MOL      0.372840
    115 O17         1.3400   -4.7090   -2.7750 o         1 MOL     -0.538292
    116 C37        -0.3420   -2.4920   -4.4650 c3        1 MOL      0.339564
    117 C38         0.7310   -1.5020   -4.2040 c3        1 MOL     -0.146927
    118 O18        -1.4480   -1.7420   -4.8260 oh        1 MOL     -0.723565
    119 H53        -2.2250   -2.1450   -2.8420 hn        1 MOL      0.084750
    120 H54        -0.9810   -4.3840   -3.6490 h1        1 MOL      0.046921
    121 H55         0.0080   -3.1930   -5.2240 h1        1 MOL     -0.009225
    122 H56        -1.2940   -1.1840   -5.5870 ho        1 MOL      0.449917
    123 H57         0.5820   -0.9120   -3.2880 hc        1 MOL      0.034191
    124 H58         1.7200   -1.9570   -4.1210 hc        1 MOL      0.034191
    125 H59         0.6930   -0.8260   -5.0590 hc        1 MOL      0.034191
    126 N11         0.9280   -2.9520   -1.3410 n         1 MOL     -0.062048
    127 C39         2.2200   -2.8830   -0.6030 c3        1 MOL      0.027308
    128 C40         3.3840   -2.4060   -1.4520 c         1 MOL      0.454549
    129 O19         3.5940   -2.8070   -2.5830 o         1 MOL     -0.484265
    130 C41         2.6000   -4.0980    0.1480 c3        1 MOL      0.283720
    131 C42         1.4450   -4.6910    1.1070 c3        1 MOL     -0.217721
    132 O20         3.6870   -3.8520    0.9490 oh        1 MOL     -0.695849
    133 H60         0.2440   -2.2620   -1.0740 hn        1 MOL      0.049667
    134 H61         2.0250   -2.1810    0.2080 h1        1 MOL      0.021163
    135 H62         2.8710   -4.8400   -0.5960 h1        1 MOL      0.037900
    136 H63         4.1180   -4.6950    1.1280 ho        1 MOL      0.415013
    137 H64         0.8210   -5.2850    0.4420 hc        1 MOL      0.057052
    138 H65         1.8290   -5.3020    1.9240 hc        1 MOL      0.057052
    139 H66         0.8560   -3.9370    1.6370 hc        1 MOL      0.057052
    140 N12         4.2430   -1.5730   -0.8310 n         1 MOL     -0.449229
    141 C43         5.6030   -1.3110   -1.4420 c3        1 MOL     -0.021336
    142 C44         5.9390    0.1450   -1.8080 c         1 MOL      0.560271
    143 O21         6.8270    0.3140   -2.5540 o         1 MOL     -0.561750
    144 C45         6.7750   -1.9330   -0.5820 c3        1 MOL      0.193649
    145 C46         6.9110   -3.4430   -0.6660 c3        1 MOL     -0.111349
    146 C47         7.2430   -3.9120   -2.0930 c3        1 MOL      0.028581
    147 C48         8.5070   -3.2750   -2.6570 c3        1 MOL      0.161792
    148 N13         8.9610   -3.8790   -3.9500 n4        1 MOL     -0.354513
    149 H67         4.0150   -1.4190    0.1300 hn        1 MOL      0.402638
    150 H68         5.6170   -1.7220   -2.4490 h1        1 MOL      0.082962
    151 H69         6.6780   -1.6310    0.4520 hc        1 MOL     -0.059850
    152 H70         7.7030   -1.4660   -0.9350 hc        1 MOL     -0.059850
    153 H71         5.9830   -3.9460   -0.4290 hc        1 MOL      0.040138
    154 H72         7.6440   -3.7760    0.0650 hc        1 MOL      0.040138
    155 H73         6.3630   -3.6850   -2.6940 hc        1 MOL      0.004728
    156 H74         7.4690   -4.9810   -2.0260 hc        1 MOL      0.004728
    157 H75         9.3750   -3.2810   -1.9840 hx        1 MOL      0.035998
    158 H76         8.2650   -2.2270   -2.8200 hx        1 MOL      0.035998
    159 H77         9.4790   -4.7310   -3.7810 hn        1 MOL      0.280698
    160 H78         8.1580   -3.9530   -4.5630 hn        1 MOL      0.280698
    161 H79         9.6960   -3.3610   -4.4050 hn        1 MOL      0.280698
    162 N14         5.1060    1.0990   -1.2990 n         1 MOL     -0.021288
    163 C49         5.1060    2.5090   -1.6340 c3        1 MOL     -0.712293
    164 C50         6.2220    3.2920   -0.8520 c         1 MOL      0.564131
    165 O22         6.0400    3.5200    0.3360 o         1 MOL     -0.480590
    166 C51         3.6690    3.0740   -1.3280 c3        1 MOL      0.555278
    167 C52         3.4860    4.4890   -1.9200 c3        1 MOL     -0.455221
    168 C53         2.0490    4.9600   -1.9900 c         1 MOL      1.043546
    169 O23         1.4290    4.9840   -3.1150 o         1 MOL     -0.880054
    170 O24         1.3740    5.0540   -0.9740 o         1 MOL     -0.880054
    171 H80         4.4050    0.8230   -0.6310 hn        1 MOL      0.006262
    172 H81         5.3040    2.6850   -2.6940 h1        1 MOL      0.187259
    173 H82         3.5290    3.0920   -0.2490 hc        1 MOL     -0.016779
    174 H83         2.9460    2.3570   -1.7150 hc        1 MOL     -0.016779
    175 H84         3.7810    4.4870   -2.9760 hc        1 MOL      0.075129
    176 H85         4.0300    5.2020   -1.3030 hc        1 MOL      0.075129
    177 N15         7.3590    3.5820   -1.4700 n         1 MOL     -0.325730
    178 C54         8.5270    4.0890   -0.6400 c3        1 MOL     -0.116384
    179 H86         9.4630    3.8180   -1.1290 h1        1 MOL      0.083407
    180 H87         8.4660    5.1730   -0.5500 h1        1 MOL      0.083407
    181 H88         8.4920    3.6370    0.3510 h1        1 MOL      0.083407
    182 H89         7.4730    3.4010   -2.4590 hn        1 MOL      0.276689
    183 Ca1        -0.9300    5.0990   -2.1190 Ca        1 MOL      1.788669
    184 O25        -2.0070    4.0300   -4.5550 oh        1 MOL     -0.858384
    185 H90        -2.2580    4.7760   -5.1070 ho        1 MOL      0.418486
    186 H91        -2.1890    3.2600   -5.0890 ho        1 MOL      0.418486
    187 O26         0.2990    7.9820   -2.1510 oh        1 MOL     -0.858384
    188 H92         1.0720    8.5290   -1.9880 ho        1 MOL      0.418486
    189 H93        -0.3700    8.5970   -2.4680 ho        1 MOL      0.418486
    190 O27        -3.5600    5.0090   -1.8710 oh        1 MOL     -0.858384
    191 H94        -4.1240    4.7490   -2.5940 ho        1 MOL      0.418486
    192 H95        -3.8490    4.4700   -1.1360 ho        1 MOL      0.418486
@<TRIPOS>BOND
     1    1    2 1   
     2    1    4 1   
     3    1    5 1   
     4    1    6 1   
     5    2    3 2   
     6    2    7 1   
     7    7    8 1   
     8    7   15 1   
     9    8    9 1   
    10    8   11 1   
    11    8   16 1   
    12    9   10 2   
    13    9   19 1   
    14   11   12 1   
    15   11   17 1   
    16   11   18 1   
    17   12   13 1   
    18   12   14 1   
    19   19   20 1   
    20   19   28 1   
    21   20   21 1   
    22   20   23 1   
    23   20   29 1   
    24   21   22 2   
    25   21   41 1   
    26   23   24 1   
    27   23   30 1   
    28   23   31 1   
    29   24   25 1   
    30   24   32 1   
    31   24   33 1   
    32   25   26 1   
    33   25   34 1   
    34   25   35 1   
    35   26   27 1   
    36   26   36 1   
    37   26   37 1   
    38   27   38 1   
    39   27   39 1   
    40   27   40 1   
    41   41   42 1   
    42   41   49 1   
    43   42   43 1   
    44   42   45 1   
    45   42   50 1   
    46   43   44 2   
    47   43   53 1   
    48   45   46 1   
    49   45   51 1   
    50   45   52 1   
    51   46   47 1   
    52   46   48 1   
    53   53   54 1   
    54   53   57 1   
    55   54   55 1   
    56   54   58 1   
    57   54   59 1   
    58   55   56 2   
    59   55   60 1   
    60   60   61 1   
    61   60   68 1   
    62   61   62 1   
    63   61   64 1   
    64   61   69 1   
    65   62   63 2   
    66   62   72 1   
    67   64   65 1   
    68   64   70 1   
    69   64   71 1   
    70   65   66 1   
    71   65   67 1   
    72   72   73 1   
    73   72   76 1   
    74   73   74 1   
    75   73   77 1   
    76   73   78 1   
    77   74   75 2   
    78   74   79 1   
    79   79   80 1   
    80   79   86 1   
    81   80   81 1   
    82   80   83 1   
    83   80   87 1   
    84   81   82 2   
    85   81   93 1   
    86   83   84 1   
    87   83   85 1   
    88   83   88 1   
    89   84   90 1   
    90   84   91 1   
    91   84   92 1   
    92   85   89 1   
    93   93   94 1   
    94   93  101 1   
    95   94   95 1   
    96   94   97 1   
    97   94  102 1   
    98   95   96 2   
    99   95  112 1   
   100   97   98 1   
   101   97   99 1   
   102   97  103 1   
   103   98  100 1   
   104   98  104 1   
   105   98  105 1   
   106   99  106 1   
   107   99  107 1   
   108   99  108 1   
   109  100  109 1   
   110  100  110 1   
   111  100  111 1   
   112  112  113 1   
   113  112  119 1   
   114  113  114 1   
   115  113  116 1   
   116  113  120 1   
   117  114  115 2   
   118  114  126 1   
   119  116  117 1   
   120  116  118 1   
   121  116  121 1   
   122  117  123 1   
   123  117  124 1   
   124  117  125 1   
   125  118  122 1   
   126  126  127 1   
   127  126  133 1   
   128  127  128 1   
   129  127  130 1   
   130  127  134 1   
   131  128  129 2   
   132  128  140 1   
   133  130  131 1   
   134  130  132 1   
   135  130  135 1   
   136  131  137 1   
   137  131  138 1   
   138  131  139 1   
   139  132  136 1   
   140  140  141 1   
   141  140  149 1   
   142  141  142 1   
   143  141  144 1   
   144  141  150 1   
   145  142  143 2   
   146  142  162 1   
   147  144  145 1   
   148  144  151 1   
   149  144  152 1   
   150  145  146 1   
   151  145  153 1   
   152  145  154 1   
   153  146  147 1   
   154  146  155 1   
   155  146  156 1   
   156  147  148 1   
   157  147  157 1   
   158  147  158 1   
   159  148  159 1   
   160  148  160 1   
   161  148  161 1   
   162  162  163 1   
   163  162  171 1   
   164  163  164 1   
   165  163  166 1   
   166  163  172 1   
   167  164  165 2   
   168  164  177 1   
   169  166  167 1   
   170  166  173 1   
   171  166  174 1   
   172  167  168 1   
   173  167  175 1   
   174  167  176 1   
   175  168  169 1   
   176  168  170 1   
   177  177  178 1   
   178  177  182 1   
   179  178  179 1   
   180  178  180 1   
   181  178  181 1   
   182  184  185 1   
   183  184  186 1   
   184  187  188 1   
   185  187  189 1   
   186  190  191 1   
   187  190  192 1   
@<TRIPOS>SUBSTRUCTURE
     1 MOL         1 TEMP              0 ****  ****    0 ROOT
