@<TRIPOS>MOLECULE
MOL
  191   184     1     0     0
SMALL
resp


@<TRIPOS>ATOM
      1 C1         13.7840    5.3650    0.5950 c3        1 MOL     -0.417855
      2 C2         12.8060    4.3600    1.0870 c         1 MOL      0.783185
      3 O1         12.3120    4.4540    2.1740 o         1 MOL     -0.599352
      4 H1         13.9620    6.1080    1.3720 hc        1 MOL      0.101846
      5 H2         14.7220    4.8680    0.3470 hc        1 MOL      0.101846
      6 H3         13.3860    5.8570   -0.2930 hc        1 MOL      0.101846
      7 N1         12.4220    3.3310    0.3000 n         1 MOL     -0.695095
      8 C3         11.6820    2.1050    0.8020 c3        1 MOL      0.367480
      9 C4         10.4660    1.8410   -0.1090 c         1 MOL      0.478101
     10 O2         10.4350    2.3190   -1.2670 o         1 MOL     -0.577137
     11 C5         12.5730    0.8120    0.8590 c3        1 MOL     -0.185085
     12 C6         12.2390   -0.0310    2.0340 c         1 MOL      0.711243
     13 O3         13.0770   -0.8410    2.3910 o         1 MOL     -0.693856
     14 O4         11.1060    0.0440    2.5630 o         1 MOL     -0.693856
     15 H4         12.9380    3.3110   -0.5730 hn        1 MOL      0.293607
     16 H5         11.1220    2.2990    1.7220 h1        1 MOL      0.028554
     17 H6         13.5550    1.2650    1.0130 hc        1 MOL      0.022075
     18 H7         12.6030    0.2730   -0.0860 hc        1 MOL      0.022075
     19 N2          9.4880    1.0750    0.4340 n         1 MOL     -0.446610
     20 C7          8.3140    0.4800   -0.3010 c3        1 MOL      0.046609
     21 C8          7.0270    0.2680    0.5550 c         1 MOL      0.626146
     22 O5          7.0510    0.2040    1.7760 o         1 MOL     -0.517112
     23 C9          8.7000   -0.9030   -0.8180 c3        1 MOL     -0.011895
     24 C10         9.9290   -1.1700   -1.7310 c3        1 MOL     -0.084886
     25 C11        10.1600   -2.6650   -2.0530 c3        1 MOL     -0.059015
     26 C12         8.8400   -3.3610   -2.4140 c3        1 MOL      0.157624
     27 N3          8.9330   -4.6340   -3.1090 n4        1 MOL     -0.376783
     28 H8          9.7010    0.6780    1.3400 hn        1 MOL      0.229373
     29 H9          8.0910    1.0710   -1.1830 h1        1 MOL      0.052292
     30 H10         7.8450   -1.5060   -1.1530 hc        1 MOL      0.047605
     31 H11         8.9470   -1.5160    0.0530 hc        1 MOL      0.047605
     32 H12        10.8100   -0.8910   -1.1560 hc        1 MOL      0.049093
     33 H13         9.7450   -0.6160   -2.6530 hc        1 MOL      0.049093
     34 H14        10.6190   -3.1990   -1.2170 hc        1 MOL      0.057230
     35 H15        10.9160   -2.7440   -2.8280 hc        1 MOL      0.057230
     36 H16         8.2840   -2.7120   -3.0780 hx        1 MOL      0.018639
     37 H17         8.1970   -3.3730   -1.5360 hx        1 MOL      0.018639
     38 H18         9.2900   -4.5980   -4.0500 hn        1 MOL      0.296633
     39 H19         9.4890   -5.2970   -2.5830 hn        1 MOL      0.296633
     40 H20         8.0410   -5.1090   -3.1280 hn        1 MOL      0.296633
     41 N4          5.9160    0.1180   -0.1140 n         1 MOL     -0.588588
     42 C13         4.6380   -0.0650    0.5560 c3        1 MOL      0.136983
     43 C14         4.3080   -1.4530    1.0890 c         1 MOL      0.481952
     44 O6          4.5660   -2.5160    0.4080 o         1 MOL     -0.472880
     45 C15         3.4210    0.1980   -0.3940 c3        1 MOL     -0.134929
     46 C16         2.0930    0.3020    0.2970 c         1 MOL      0.417565
     47 O7          1.4420   -0.7080    0.6490 o         1 MOL     -0.612327
     48 O8          1.7480    1.4020    0.7110 o         1 MOL     -0.612327
     49 H21         5.9050    0.0460   -1.1240 hn        1 MOL      0.302728
     50 H22         4.5670    0.6260    1.3970 h1        1 MOL      0.074878
     51 H23         3.4370   -0.6110   -1.1200 hc        1 MOL      0.081189
     52 H24         3.6450    1.1010   -0.9700 hc        1 MOL      0.081189
     53 N5          3.8380   -1.5430    2.3250 n         1 MOL     -0.237539
     54 C17         3.6240   -2.6970    3.1880 c3        1 MOL     -0.138553
     55 C18         2.5510   -3.6860    2.6730 c         1 MOL      0.495104
     56 O9          2.5400   -4.8530    3.0110 o         1 MOL     -0.532385
     57 H25         3.7370   -0.6600    2.8030 hn        1 MOL      0.222491
     58 H26         3.1450   -2.3840    4.1240 h1        1 MOL      0.110644
     59 H27         4.5400   -3.2330    3.4220 h1        1 MOL      0.110644
     60 N6          1.7110   -3.3220    1.7360 n         1 MOL     -0.136254
     61 C19         0.8930   -4.1670    0.8920 c3        1 MOL      0.149923
     62 C20         1.0820   -3.7400   -0.5520 c         1 MOL      0.380153
     63 O10         0.1800   -4.0590   -1.3830 o         1 MOL     -0.569631
     64 C21        -0.5900   -4.2200    1.3360 c3        1 MOL     -0.045796
     65 C22        -0.8150   -4.7050    2.7090 c         1 MOL      0.618511
     66 N7         -1.3110   -5.9180    2.8670 n         1 MOL     -0.725692
     67 O11        -0.5050   -4.0310    3.6830 o         1 MOL     -0.595894
     68 H28         1.7550   -2.3140    1.6430 hn        1 MOL      0.075511
     69 H29         1.2490   -5.1930    0.9940 h1        1 MOL      0.051115
     70 H30        -1.2820   -4.8640    0.7890 hc        1 MOL     -0.015130
     71 H31        -0.9340   -3.1920    1.2930 hc        1 MOL     -0.015130
     72 H32        -1.6810   -6.4220    2.0760 hn        1 MOL      0.366770
     73 H33        -1.5480   -6.2340    3.7990 hn        1 MOL      0.366770
     74 N8          2.0420   -2.9010   -0.9340 n         1 MOL      0.091275
     75 C23         2.3430   -2.7010   -2.3110 c3        1 MOL     -0.221166
     76 C24         1.7150   -1.4990   -3.0620 c         1 MOL      0.584881
     77 O12         1.9410   -1.3400   -4.2130 o         1 MOL     -0.531447
     78 H34         2.5220   -2.3210   -0.2510 hn        1 MOL     -0.258321
     79 H35         2.1430   -3.5810   -2.9170 h1        1 MOL      0.108518
     80 H36         3.4330   -2.5710   -2.3420 h1        1 MOL      0.108518
     81 N9          0.9980   -0.6290   -2.3180 n         1 MOL     -0.396173
     82 C25         0.1730    0.3910   -2.8300 c3        1 MOL     -0.009897
     83 C26        -1.1100    0.6740   -1.9780 c         1 MOL      0.344159
     84 O13        -1.0150    0.6490   -0.7500 o         1 MOL     -0.572064
     85 C27         0.9250    1.7510   -2.8800 c3        1 MOL     -0.126923
     86 C28         0.1670    3.0100   -3.2690 ca        1 MOL     -0.000834
     87 C29        -0.2470    3.2080   -4.6230 ca        1 MOL     -0.088356
     88 C30        -0.0750    4.0210   -2.3380 ca        1 MOL     -0.088356
     89 C31        -0.8780    4.4220   -5.0020 ca        1 MOL     -0.377645
     90 C32        -0.6960    5.2780   -2.7280 ca        1 MOL     -0.377645
     91 C33        -1.0700    5.4750   -4.0660 ca        1 MOL      0.468846
     92 O14        -1.6390    6.6200   -4.4250 oh        1 MOL     -0.478634
     93 H37         0.8090   -0.9260   -1.3740 hn        1 MOL      0.358793
     94 H38        -0.2100    0.1230   -3.8160 h1        1 MOL      0.074975
     95 H39         1.8170    1.6380   -3.5010 hc        1 MOL      0.085925
     96 H40         1.3000    1.8990   -1.8710 hc        1 MOL      0.085925
     97 H41        -0.0630    2.4500   -5.3690 ha        1 MOL      0.123586
     98 H42         0.2020    3.8030   -1.3200 ha        1 MOL      0.123586
     99 H43        -1.0130    4.6660   -6.0510 ha        1 MOL      0.178494
    100 H44        -0.9690    5.9930   -1.9650 ha        1 MOL      0.178494
    101 H45        -1.5800    7.2210   -3.6790 ho        1 MOL      0.366190
    102 N10        -2.2040    0.8800   -2.6890 n         1 MOL     -0.131433
    103 C34        -3.5590    0.9830   -2.0910 c3        1 MOL      0.009736
    104 C35        -4.0300   -0.3820   -1.4070 c         1 MOL      0.100760
    105 O15        -4.6570   -0.3450   -0.3000 o         1 MOL     -0.451892
    106 C36        -4.5090    1.5070   -3.1550 c3        1 MOL      0.094852
    107 C37        -4.0890    2.9470   -3.7400 c3        1 MOL     -0.158291
    108 C38        -5.9160    1.3560   -2.7470 c3        1 MOL     -0.090914
    109 C39        -4.1010    3.8970   -2.5060 c3        1 MOL      0.016756
    110 H46        -2.1340    0.8900   -3.7030 hn        1 MOL      0.193865
    111 H47        -3.4560    1.6530   -1.2410 h1        1 MOL      0.156986
    112 H48        -4.3810    0.8560   -4.0230 hc        1 MOL     -0.017812
    113 H49        -4.8440    3.1500   -4.4940 hc        1 MOL      0.072412
    114 H50        -3.1330    2.9120   -4.2650 hc        1 MOL      0.072412
    115 H51        -6.1350    1.7210   -1.7420 hc        1 MOL      0.042922
    116 H52        -6.5930    1.7730   -3.4850 hc        1 MOL      0.042922
    117 H53        -6.2040    0.3040   -2.8360 hc        1 MOL      0.042922
    118 H54        -3.1960    3.7270   -1.9240 hc        1 MOL     -0.008295
    119 H55        -4.0500    4.9620   -2.7320 hc        1 MOL     -0.008295
    120 H56        -4.9180    3.7150   -1.8170 hc        1 MOL     -0.008295
    121 N11        -3.8490   -1.5720   -2.0010 n         1 MOL     -0.002927
    122 C40        -4.2960   -2.8990   -1.5420 c3        1 MOL     -0.162864
    123 C41        -5.7950   -3.1950   -1.7180 c         1 MOL      0.513577
    124 O16        -6.2770   -4.2140   -1.1730 o         1 MOL     -0.508436
    125 C42        -3.4330   -3.9610   -2.2500 c3        1 MOL      0.199713
    126 O17        -3.4720   -3.9230   -3.7090 oh        1 MOL     -0.651344
    127 H57        -3.2590   -1.5440   -2.8270 hn        1 MOL      0.162365
    128 H58        -3.9760   -3.0340   -0.5060 h1        1 MOL      0.105058
    129 H59        -3.8610   -4.8630   -1.8190 h1        1 MOL      0.042011
    130 H60        -2.3860   -3.8830   -1.9600 h1        1 MOL      0.042011
    131 H61        -2.8230   -4.5440   -4.0630 ho        1 MOL      0.431197
    132 N12        -6.5240   -2.4410   -2.5380 n         1 MOL     -0.167316
    133 C43        -7.9600   -2.5960   -2.6960 c3        1 MOL      0.128136
    134 C44        -8.7690   -2.3160   -1.4080 c         1 MOL      0.521228
    135 O18        -9.6740   -3.0110   -0.9750 o         1 MOL     -0.484101
    136 C45        -8.2700   -3.8830   -3.5450 c3        1 MOL     -0.370561
    137 H62        -6.0200   -1.7650   -3.1110 hn        1 MOL      0.155283
    138 H63        -8.1910   -1.7830   -3.3880 h1        1 MOL      0.044939
    139 H64        -7.7400   -4.7480   -3.1450 hc        1 MOL      0.109551
    140 H65        -9.3530   -4.0250   -3.5110 hc        1 MOL      0.109551
    141 H66        -7.8130   -3.7890   -4.5300 hc        1 MOL      0.109551
    142 N13        -8.3030   -1.2450   -0.7050 n         1 MOL     -0.542847
    143 C46        -8.6500   -1.1300    0.7020 c3        1 MOL      0.296444
    144 C47        -8.8240    0.3460    1.1740 c         1 MOL      0.520121
    145 O19        -8.0930    1.2130    0.7940 o         1 MOL     -0.446891
    146 C48        -7.5620   -1.7970    1.6310 c3        1 MOL     -0.333865
    147 H67        -7.5270   -0.7030   -1.0800 hn        1 MOL      0.164234
    148 H68        -9.6290   -1.5840    0.8840 h1        1 MOL      0.003285
    149 H69        -6.4960   -1.7130    1.4390 hc        1 MOL      0.091105
    150 H70        -7.7530   -1.5860    2.6810 hc        1 MOL      0.091105
    151 H71        -7.7340   -2.8730    1.5220 hc        1 MOL      0.091105
    152 N14        -9.8010    0.6410    2.0230 n         1 MOL     -0.532881
    153 C49       -10.1300    2.0370    2.4580 c3        1 MOL      0.034451
    154 C50       -10.6790    3.0050    1.3290 c         1 MOL      0.393458
    155 O20       -10.7660    4.2080    1.5970 o         1 MOL     -0.487856
    156 C51        -8.9940    2.6580    3.3440 c3        1 MOL      0.214572
    157 C52        -8.5520    1.7480    4.5170 c3        1 MOL     -0.171494
    158 C53        -7.5720    2.4360    5.5620 c         1 MOL      0.629920
    159 O21        -8.1100    3.0880    6.4850 o         1 MOL     -0.664906
    160 O22        -6.3210    2.2390    5.5070 o         1 MOL     -0.664906
    161 H72       -10.3780   -0.0970    2.4090 hn        1 MOL      0.301074
    162 H73       -11.0230    1.9020    3.0630 h1        1 MOL      0.085759
    163 H74        -9.3660    3.6100    3.7020 hc        1 MOL     -0.031409
    164 H75        -8.1140    2.8450    2.7130 hc        1 MOL     -0.031409
    165 H76        -8.0970    0.8740    4.0570 hc        1 MOL     -0.002543
    166 H77        -9.4720    1.3480    4.9230 hc        1 MOL     -0.002543
    167 N15       -11.1100    2.5120    0.1990 n         1 MOL     -0.321410
    168 C54       -10.9840    3.2400   -1.0810 c3        1 MOL     -0.055399
    169 H78       -10.4700    4.1860   -0.9110 h1        1 MOL      0.068237
    170 H79       -10.4130    2.6380   -1.7870 h1        1 MOL      0.068237
    171 H80       -11.9770    3.4350   -1.4880 h1        1 MOL      0.068237
    172 H81       -11.1150    1.5040    0.1580 hn        1 MOL      0.220652
    173 Ca1        -0.5560    0.9000    1.8600 Ca        1 MOL      1.805737
    174 O23        -2.6140   -0.7220    1.3830 oh        1 MOL     -0.856287
    175 H82        -3.2750   -0.2060    0.9200 ho        1 MOL      0.428020
    176 H83        -2.9750   -1.6080    1.3790 ho        1 MOL      0.428020
    177 O24        -0.1730   -1.2470    3.4250 oh        1 MOL     -0.856287
    178 H84        -0.6230   -2.0870    3.3900 ho        1 MOL      0.428020
    179 H85         0.2740   -1.2430    4.2650 ho        1 MOL      0.428020
    180 O25        -1.8360    1.3250    4.0760 oh        1 MOL     -0.856287
    181 H86        -2.3500    2.1320    4.2100 ho        1 MOL      0.428020
    182 H87        -1.9720    0.8340    4.8910 ho        1 MOL      0.428020
    183 O26        -2.9460    2.2580    1.5380 oh        1 MOL     -0.856287
    184 H88        -2.7230    3.1820    1.4120 ho        1 MOL      0.428020
    185 H89        -3.8620    2.2760    1.8030 ho        1 MOL      0.428020
    186 O27         1.0520    1.6580    3.9230 oh        1 MOL     -0.856287
    187 H90         1.9630    1.3540    3.8920 ho        1 MOL      0.428020
    188 H91         0.8170    1.6260    4.8530 ho        1 MOL      0.428020
    189 O28        -0.2220    3.5200    1.7760 oh        1 MOL     -0.856287
    190 H92        -0.5490    4.3210    2.1920 ho        1 MOL      0.428020
    191 H93         0.6520    3.7590    1.4470 ho        1 MOL      0.428020
@<TRIPOS>BOND
     1    1    2 1   
     2    1    4 1   
     3    1    5 1   
     4    1    6 1   
     5    2    3 2   
     6    2    7 1   
     7    7    8 1   
     8    7   15 1   
     9    8    9 1   
    10    8   11 1   
    11    8   16 1   
    12    9   10 2   
    13    9   19 1   
    14   11   12 1   
    15   11   17 1   
    16   11   18 1   
    17   12   13 1   
    18   12   14 1   
    19   19   20 1   
    20   19   28 1   
    21   20   21 1   
    22   20   23 1   
    23   20   29 1   
    24   21   22 2   
    25   21   41 1   
    26   23   24 1   
    27   23   30 1   
    28   23   31 1   
    29   24   25 1   
    30   24   32 1   
    31   24   33 1   
    32   25   26 1   
    33   25   34 1   
    34   25   35 1   
    35   26   27 1   
    36   26   36 1   
    37   26   37 1   
    38   27   38 1   
    39   27   39 1   
    40   27   40 1   
    41   41   42 1   
    42   41   49 1   
    43   42   43 1   
    44   42   45 1   
    45   42   50 1   
    46   43   44 2   
    47   43   53 1   
    48   45   46 1   
    49   45   51 1   
    50   45   52 1   
    51   46   47 1   
    52   46   48 1   
    53   53   54 1   
    54   53   57 1   
    55   54   55 1   
    56   54   58 1   
    57   54   59 1   
    58   55   56 2   
    59   55   60 1   
    60   60   61 1   
    61   60   68 1   
    62   61   62 1   
    63   61   64 1   
    64   61   69 1   
    65   62   63 2   
    66   62   74 1   
    67   64   65 1   
    68   64   70 1   
    69   64   71 1   
    70   65   66 1   
    71   65   67 2   
    72   66   72 1   
    73   66   73 1   
    74   74   75 1   
    75   74   78 1   
    76   75   76 1   
    77   75   79 1   
    78   75   80 1   
    79   76   77 2   
    80   76   81 1   
    81   81   82 1   
    82   81   93 1   
    83   82   83 1   
    84   82   85 1   
    85   82   94 1   
    86   83   84 2   
    87   83  102 1   
    88   85   86 1   
    89   85   95 1   
    90   85   96 1   
    91   86   87 ar  
    92   86   88 ar  
    93   87   89 ar  
    94   87   97 1   
    95   88   90 ar  
    96   88   98 1   
    97   89   91 ar  
    98   89   99 1   
    99   90   91 ar  
   100   90  100 1   
   101   91   92 1   
   102   92  101 1   
   103  102  103 1   
   104  102  110 1   
   105  103  104 1   
   106  103  106 1   
   107  103  111 1   
   108  104  105 2   
   109  104  121 1   
   110  106  107 1   
   111  106  108 1   
   112  106  112 1   
   113  107  109 1   
   114  107  113 1   
   115  107  114 1   
   116  108  115 1   
   117  108  116 1   
   118  108  117 1   
   119  109  118 1   
   120  109  119 1   
   121  109  120 1   
   122  121  122 1   
   123  121  127 1   
   124  122  123 1   
   125  122  125 1   
   126  122  128 1   
   127  123  124 2   
   128  123  132 1   
   129  125  126 1   
   130  125  129 1   
   131  125  130 1   
   132  126  131 1   
   133  132  133 1   
   134  132  137 1   
   135  133  134 1   
   136  133  136 1   
   137  133  138 1   
   138  134  135 2   
   139  134  142 1   
   140  136  139 1   
   141  136  140 1   
   142  136  141 1   
   143  142  143 1   
   144  142  147 1   
   145  143  144 1   
   146  143  146 1   
   147  143  148 1   
   148  144  145 2   
   149  144  152 1   
   150  146  149 1   
   151  146  150 1   
   152  146  151 1   
   153  152  153 1   
   154  152  161 1   
   155  153  154 1   
   156  153  156 1   
   157  153  162 1   
   158  154  155 2   
   159  154  167 1   
   160  156  157 1   
   161  156  163 1   
   162  156  164 1   
   163  157  158 1   
   164  157  165 1   
   165  157  166 1   
   166  158  159 1   
   167  158  160 1   
   168  167  168 1   
   169  167  172 1   
   170  168  169 1   
   171  168  170 1   
   172  168  171 1   
   173  174  175 1   
   174  174  176 1   
   175  177  178 1   
   176  177  179 1   
   177  180  181 1   
   178  180  182 1   
   179  183  184 1   
   180  183  185 1   
   181  186  187 1   
   182  186  188 1   
   183  189  190 1   
   184  189  191 1   
@<TRIPOS>SUBSTRUCTURE
     1 MOL         1 TEMP              0 ****  ****    0 ROOT
