@<TRIPOS>MOLECULE
MOL
  184   179     1     0     0
SMALL
resp


@<TRIPOS>ATOM
      1 C1         -4.1840   -2.4530   -3.2430 c3        1 MOL     -0.350338
      2 C2         -5.7440   -2.5140   -2.9960 c         1 MOL      0.725270
      3 O1         -6.5480   -1.6410   -3.3550 o         1 MOL     -0.577440
      4 H1         -3.7820   -1.5420   -2.8010 hc        1 MOL      0.081122
      5 H2         -3.7090   -3.3200   -2.7850 hc        1 MOL      0.081122
      6 H3         -3.9850   -2.4540   -4.3150 hc        1 MOL      0.081122
      7 N1         -6.1370   -3.5110   -2.2510 n         1 MOL     -0.677779
      8 C3         -7.5100   -3.6870   -1.9640 c3        1 MOL      0.371699
      9 C4         -8.0250   -2.8460   -0.6600 c         1 MOL      0.513730
     10 O2         -7.2770   -2.5640    0.2320 o         1 MOL     -0.550425
     11 C5         -7.8040   -5.2250   -1.8020 c3        1 MOL     -0.297919
     12 C6         -9.2910   -5.5650   -2.1660 c         1 MOL      0.725685
     13 O3         -9.8030   -5.0280   -3.1660 o         1 MOL     -0.727534
     14 O4         -9.8780   -6.4640   -1.4590 o         1 MOL     -0.727534
     15 H4         -5.5380   -4.1330   -1.7140 hn        1 MOL      0.324053
     16 H5         -8.1630   -3.3200   -2.7640 h1        1 MOL      0.002271
     17 H6         -7.5430   -5.5250   -0.7890 hc        1 MOL      0.031040
     18 H7         -7.2590   -5.8710   -2.4970 hc        1 MOL      0.031040
     19 N2         -9.3260   -2.6000   -0.6540 n         1 MOL     -0.585361
     20 C7        -10.0450   -1.9990    0.4690 c3        1 MOL      0.318602
     21 C8         -9.4250   -0.5820    0.7720 c         1 MOL      0.243769
     22 O5         -9.5190   -0.1720    1.9650 o         1 MOL     -0.544157
     23 C9        -11.5120   -2.0580    0.1360 c3        1 MOL     -0.449249
     24 H8         -9.8260   -2.8150   -1.5000 hn        1 MOL      0.327442
     25 H9         -9.9290   -2.6260    1.3550 h1        1 MOL      0.045011
     26 H10       -12.0900   -1.5070    0.8810 hc        1 MOL      0.129353
     27 H11       -11.6760   -1.7350   -0.8900 hc        1 MOL      0.129353
     28 H12       -11.8330   -3.0860    0.3180 hc        1 MOL      0.129353
     29 N3         -8.7440    0.0980   -0.1870 n         1 MOL      0.043791
     30 C10        -8.1120    1.3790   -0.0440 c3        1 MOL      0.085311
     31 C11        -6.5970    1.1970   -0.2060 c         1 MOL      0.530037
     32 O6         -5.9330    1.9830   -0.9310 o         1 MOL     -0.545410
     33 C12        -8.7070    2.2810   -1.0830 c3        1 MOL     -0.177351
     34 C13       -10.2090    2.2020   -1.1550 c         1 MOL      0.754372
     35 O7        -10.9060    2.7110   -0.2810 o         1 MOL     -0.712293
     36 O8        -10.6760    1.6590   -2.1210 o         1 MOL     -0.712293
     37 H13        -8.5950   -0.3110   -1.1010 hn        1 MOL      0.134930
     38 H14        -8.3950    1.6610    0.9690 h1        1 MOL      0.026886
     39 H15        -8.2880    1.9080   -2.0160 hc        1 MOL      0.011804
     40 H16        -8.3820    3.2990   -0.9230 hc        1 MOL      0.011804
     41 N4         -6.0190    0.1410    0.4000 n         1 MOL     -0.498062
     42 C14        -4.5530    0.0300    0.5620 c3        1 MOL     -0.051910
     43 C15        -3.9640    1.0320    1.5610 c         1 MOL      0.640371
     44 O9         -4.5470    1.4100    2.5970 o         1 MOL     -0.572625
     45 H17        -6.5660   -0.6420    0.7350 hn        1 MOL      0.279172
     46 H18        -4.0930    0.2420   -0.4040 h1        1 MOL      0.078106
     47 H19        -4.2580   -0.9800    0.8140 h1        1 MOL      0.078106
     48 N5         -2.7030    1.4140    1.3640 n         1 MOL     -0.580677
     49 C16        -1.9500    2.2810    2.3350 c3        1 MOL      0.234018
     50 C17        -1.7550    3.6970    1.7260 c         1 MOL      0.365361
     51 O10        -1.4700    3.8350    0.5410 o         1 MOL     -0.368270
     52 C18        -0.6980    1.4740    2.7680 c3        1 MOL     -0.408982
     53 C19         0.1170    2.2100    3.8210 c         1 MOL      0.663556
     54 N6          0.9500    3.1210    3.4490 n         1 MOL     -0.830983
     55 O11         0.2090    1.8200    4.9650 o         1 MOL     -0.591747
     56 H20        -2.2870    0.9840    0.5480 hn        1 MOL      0.260538
     57 H21        -2.5140    2.4730    3.2480 h1        1 MOL      0.043577
     58 H22        -0.0300    1.3140    1.9200 hc        1 MOL      0.162888
     59 H23        -1.0740    0.5430    3.1880 hc        1 MOL      0.162888
     60 H24         1.0160    3.2800    2.4600 hn        1 MOL      0.378693
     61 H25         1.7010    3.4160    4.0560 hn        1 MOL      0.378693
     62 N7         -1.7560    4.6870    2.6230 n         1 MOL     -0.178606
     63 C20        -1.5630    6.1050    2.3270 c3        1 MOL     -0.374755
     64 C21        -0.2260    6.4800    1.6460 c         1 MOL      0.511943
     65 O12         0.9310    6.2310    2.0550 o         1 MOL     -0.506377
     66 H26        -2.1830    4.4680    3.5140 hn        1 MOL      0.256421
     67 H27        -1.5770    6.6490    3.2640 h1        1 MOL      0.154126
     68 H28        -2.4300    6.3350    1.7140 h1        1 MOL      0.154126
     69 N8         -0.3800    7.0360    0.4820 n         1 MOL     -0.275369
     70 C22         0.7370    7.5740   -0.4080 c3        1 MOL     -0.297037
     71 C23         1.5990    6.4240   -0.9360 c         1 MOL      0.427859
     72 O13         2.7740    6.6830   -1.2320 o         1 MOL     -0.533509
     73 C24         0.1800    8.4630   -1.5020 c3        1 MOL      0.431643
     74 C25        -0.6980    7.7400   -2.5350 c3        1 MOL     -0.239762
     75 O14        -0.4670    9.4690   -0.8440 oh        1 MOL     -0.597442
     76 H29        -1.3260    7.3230    0.2610 hn        1 MOL      0.236058
     77 H30         1.4090    8.1630    0.2180 h1        1 MOL      0.191063
     78 H31         0.9790    8.9340   -2.0750 h1        1 MOL      0.042714
     79 H32        -1.3040    9.0440   -0.6530 ho        1 MOL      0.362391
     80 H33        -1.3720    8.4320   -3.0370 hc        1 MOL      0.048522
     81 H34        -0.0350    7.2100   -3.2190 hc        1 MOL      0.048522
     82 H35        -1.2410    6.9520   -2.0080 hc        1 MOL      0.048522
     83 N9          1.0760    5.1270   -0.9780 n         1 MOL      0.030394
     84 C26         1.8310    3.9450   -1.3560 c3        1 MOL     -0.084444
     85 C27         2.0200    2.8870   -0.2920 c         1 MOL      0.492428
     86 O15         1.4500    2.9410    0.8050 o         1 MOL     -0.436511
     87 C28         1.3170    3.3810   -2.6510 c3        1 MOL      0.129579
     88 C29         0.0660    2.4180   -2.5770 c3        1 MOL     -0.355980
     89 C30         1.3180    4.3370   -3.8760 c3        1 MOL     -0.169169
     90 C31        -1.3480    3.0300   -2.5990 c3        1 MOL     -0.123972
     91 H36         0.2200    4.9470   -0.4650 hn        1 MOL      0.065294
     92 H37         2.8700    4.2450   -1.4950 h1        1 MOL      0.066767
     93 H38         2.0810    2.6670   -2.9630 hc        1 MOL     -0.017538
     94 H39         0.0540    1.8780   -1.6370 hc        1 MOL      0.145675
     95 H40         0.1290    1.7490   -3.4360 hc        1 MOL      0.145675
     96 H41         1.2360    3.8000   -4.8150 hc        1 MOL      0.046960
     97 H42         0.4420    4.9720   -3.6980 hc        1 MOL      0.046960
     98 H43         2.2280    4.9190   -4.0170 hc        1 MOL      0.046960
     99 H44        -2.1880    2.3410   -2.4410 hc        1 MOL      0.050527
    100 H45        -1.5350    3.7480   -1.8060 hc        1 MOL      0.050527
    101 H46        -1.5880    3.3780   -3.6030 hc        1 MOL      0.050527
    102 N10         3.0060    1.9300   -0.5430 n         1 MOL     -0.587213
    103 C32         3.1760    0.8740    0.4450 c3        1 MOL      0.098857
    104 C33         4.5670    0.2780    0.4910 c         1 MOL      0.512403
    105 O16         4.8550   -0.8340    0.9900 o         1 MOL     -0.502762
    106 C34         2.1890   -0.3190    0.2120 c3        1 MOL      0.009579
    107 C35         1.8860   -1.2840    1.3230 c         1 MOL      0.530870
    108 O17         1.0390   -2.2100    1.1350 o         1 MOL     -0.694648
    109 O18         2.2440   -1.0570    2.4690 o         1 MOL     -0.694648
    110 H47         3.6280    2.0800   -1.3260 hn        1 MOL      0.332407
    111 H48         3.0370    1.3140    1.4280 h1        1 MOL      0.086673
    112 H49         2.5170   -0.8880   -0.6600 hc        1 MOL      0.008304
    113 H50         1.2300    0.1240   -0.0700 hc        1 MOL      0.008304
    114 N11         5.5110    0.9510   -0.1990 n         1 MOL     -0.471624
    115 C36         6.9270    0.6000   -0.3150 c3        1 MOL      0.146109
    116 C37         7.1450   -0.7300   -1.1250 c         1 MOL      0.278605
    117 O19         6.5950   -0.7920   -2.2480 o         1 MOL     -0.474880
    118 C38         7.8330    1.7290   -0.9320 c3        1 MOL     -0.079134
    119 C39         9.2680    1.3270   -0.7490 ca        1 MOL      0.083336
    120 C40         9.8990    1.5410    0.4880 ca        1 MOL     -0.188555
    121 C41         9.9560    0.6700   -1.7300 ca        1 MOL     -0.188555
    122 C42        11.2340    1.1230    0.6620 ca        1 MOL     -0.064932
    123 C43        11.3010    0.2390   -1.5720 ca        1 MOL     -0.064932
    124 C44        11.8970    0.4300   -0.3300 ca        1 MOL     -0.178541
    125 H51         5.2780    1.7920   -0.7010 hn        1 MOL      0.259650
    126 H52         7.1450    0.5090    0.7530 h1        1 MOL      0.050939
    127 H53         7.6090    2.6900   -0.4640 hc        1 MOL      0.056282
    128 H54         7.6300    1.8530   -1.9880 hc        1 MOL      0.056282
    129 H55         9.4190    2.0660    1.3010 ha        1 MOL      0.120166
    130 H56         9.4090    0.2980   -2.5930 ha        1 MOL      0.120166
    131 H57        11.7480    1.3560    1.5770 ha        1 MOL      0.098690
    132 H58        11.7990   -0.3390   -2.3420 ha        1 MOL      0.098690
    133 H59        12.8980    0.0320   -0.2180 ha        1 MOL      0.112690
    134 N12         7.8670   -1.7370   -0.6800 n         1 MOL     -0.068836
    135 C45         8.2010   -2.9440   -1.4860 c3        1 MOL     -0.188535
    136 C46         7.0910   -3.8140   -2.0950 c         1 MOL      0.418471
    137 O20         7.3890   -4.6440   -2.9610 o         1 MOL     -0.520109
    138 C47         9.1760   -3.7340   -0.5870 c3        1 MOL      0.011708
    139 C48         9.8190   -2.7420    0.3270 c3        1 MOL     -0.137649
    140 C49         8.6290   -1.7970    0.5800 c3        1 MOL      0.139997
    141 H60         8.8230   -2.4740   -2.2380 h1        1 MOL      0.133143
    142 H61         8.6590   -4.5670   -0.1120 hc        1 MOL      0.041669
    143 H62         9.9400   -4.2460   -1.1770 hc        1 MOL      0.041669
    144 H63        10.1500   -3.0900    1.3130 hc        1 MOL      0.056997
    145 H64        10.6880   -2.2820   -0.1250 hc        1 MOL      0.056997
    146 H65         7.9660   -2.1100    1.3810 h1        1 MOL     -0.009787
    147 H66         9.0700   -0.8440    0.8790 h1        1 MOL     -0.009787
    148 N13         5.8650   -3.7190   -1.6070 n         1 MOL     -0.245822
    149 C50         4.6710   -4.4190   -2.1410 c3        1 MOL     -0.293897
    150 C51         4.1180   -3.7710   -3.4180 c         1 MOL      0.453206
    151 O21         3.1850   -4.2550   -4.0260 o         1 MOL     -0.536554
    152 C52         3.5140   -4.5360   -1.0970 c3        1 MOL      0.172784
    153 C53         4.0310   -5.0020    0.3200 c3        1 MOL      0.060736
    154 C54         2.8240   -5.1390    1.2630 c         1 MOL      0.439527
    155 O22         1.8850   -5.9290    0.9380 o         1 MOL     -0.631522
    156 O23         2.7720   -4.5600    2.3730 o         1 MOL     -0.631522
    157 H67         5.7050   -3.0240   -0.8870 hn        1 MOL      0.335912
    158 H68         5.0770   -5.4140   -2.3790 h1        1 MOL      0.168836
    159 H69         2.7570   -5.2160   -1.4970 hc        1 MOL      0.013921
    160 H70         3.1350   -3.5280   -0.9550 hc        1 MOL      0.013921
    161 H71         4.7330   -4.2910    0.7540 hc        1 MOL     -0.043863
    162 H72         4.5330   -5.9660    0.2480 hc        1 MOL     -0.043863
    163 N14         4.5480   -2.6080   -3.7960 n         1 MOL     -0.066305
    164 C55         4.2750   -1.7680   -4.9490 c3        1 MOL     -0.276818
    165 H73         4.5630   -2.2950   -5.8580 h1        1 MOL      0.104292
    166 H74         3.2110   -1.5350   -4.9860 h1        1 MOL      0.104292
    167 H75         4.8460   -0.8430   -4.8690 h1        1 MOL      0.104292
    168 H76         5.2050   -2.1100   -3.2210 hn        1 MOL      0.129054
    169 Ca1         0.9780   -3.1640    3.5420 Ca        1 MOL      1.724168
    170 O24         1.1550   -1.6120    5.6220 oh        1 MOL     -0.815739
    171 H77         0.4480   -1.4420    6.2540 ho        1 MOL      0.401008
    172 H78         1.9620   -1.4350    6.1140 ho        1 MOL      0.401008
    173 O25         2.8480   -3.8970    5.4100 oh        1 MOL     -0.815739
    174 H79         3.6990   -3.9060    4.9910 ho        1 MOL      0.401008
    175 H80         3.0280   -4.0850    6.3290 ho        1 MOL      0.401008
    176 O26        -1.4460   -2.0010    2.8760 oh        1 MOL     -0.815739
    177 H81        -2.4010   -2.0560    2.9170 ho        1 MOL      0.401008
    178 H82        -1.2600   -1.7310    1.9750 ho        1 MOL      0.401008
    179 O27        -0.1980   -4.7620    5.4110 oh        1 MOL     -0.815739
    180 H83        -0.6620   -4.2490    6.0800 ho        1 MOL      0.401008
    181 H84        -0.7110   -5.5630    5.3220 ho        1 MOL      0.401008
    182 O28        -0.7760   -4.7890    2.4660 oh        1 MOL     -0.815739
    183 H85        -1.5350   -4.4510    2.9330 ho        1 MOL      0.401008
    184 H86        -1.1080   -5.5280    1.9620 ho        1 MOL      0.401008
@<TRIPOS>BOND
     1    1    2 1   
     2    1    4 1   
     3    1    5 1   
     4    1    6 1   
     5    2    3 2   
     6    2    7 1   
     7    7    8 1   
     8    7   15 1   
     9    8    9 1   
    10    8   11 1   
    11    8   16 1   
    12    9   10 2   
    13    9   19 1   
    14   11   12 1   
    15   11   17 1   
    16   11   18 1   
    17   12   13 1   
    18   12   14 1   
    19   19   20 1   
    20   19   24 1   
    21   20   21 1   
    22   20   23 1   
    23   20   25 1   
    24   21   22 2   
    25   21   29 1   
    26   23   26 1   
    27   23   27 1   
    28   23   28 1   
    29   29   30 1   
    30   29   37 1   
    31   30   31 1   
    32   30   33 1   
    33   30   38 1   
    34   31   32 2   
    35   31   41 1   
    36   33   34 1   
    37   33   39 1   
    38   33   40 1   
    39   34   35 1   
    40   34   36 1   
    41   41   42 1   
    42   41   45 1   
    43   42   43 1   
    44   42   46 1   
    45   42   47 1   
    46   43   44 2   
    47   43   48 1   
    48   48   49 1   
    49   48   56 1   
    50   49   50 1   
    51   49   52 1   
    52   49   57 1   
    53   50   51 2   
    54   50   62 1   
    55   52   53 1   
    56   52   58 1   
    57   52   59 1   
    58   53   54 1   
    59   53   55 2   
    60   54   60 1   
    61   54   61 1   
    62   62   63 1   
    63   62   66 1   
    64   63   64 1   
    65   63   67 1   
    66   63   68 1   
    67   64   65 2   
    68   64   69 1   
    69   69   70 1   
    70   69   76 1   
    71   70   71 1   
    72   70   73 1   
    73   70   77 1   
    74   71   72 2   
    75   71   83 1   
    76   73   74 1   
    77   73   75 1   
    78   73   78 1   
    79   74   80 1   
    80   74   81 1   
    81   74   82 1   
    82   75   79 1   
    83   83   84 1   
    84   83   91 1   
    85   84   85 1   
    86   84   87 1   
    87   84   92 1   
    88   85   86 2   
    89   85  102 1   
    90   87   88 1   
    91   87   89 1   
    92   87   93 1   
    93   88   90 1   
    94   88   94 1   
    95   88   95 1   
    96   89   96 1   
    97   89   97 1   
    98   89   98 1   
    99   90   99 1   
   100   90  100 1   
   101   90  101 1   
   102  102  103 1   
   103  102  110 1   
   104  103  104 1   
   105  103  106 1   
   106  103  111 1   
   107  104  105 2   
   108  104  114 1   
   109  106  107 1   
   110  106  112 1   
   111  106  113 1   
   112  107  108 1   
   113  107  109 1   
   114  114  115 1   
   115  114  125 1   
   116  115  116 1   
   117  115  118 1   
   118  115  126 1   
   119  116  117 2   
   120  116  134 1   
   121  118  119 1   
   122  118  127 1   
   123  118  128 1   
   124  119  120 ar  
   125  119  121 ar  
   126  120  122 ar  
   127  120  129 1   
   128  121  123 ar  
   129  121  130 1   
   130  122  124 ar  
   131  122  131 1   
   132  123  124 ar  
   133  123  132 1   
   134  124  133 1   
   135  134  135 1   
   136  134  140 1   
   137  135  136 1   
   138  135  138 1   
   139  135  141 1   
   140  136  137 2   
   141  136  148 1   
   142  138  139 1   
   143  138  142 1   
   144  138  143 1   
   145  139  140 1   
   146  139  144 1   
   147  139  145 1   
   148  140  146 1   
   149  140  147 1   
   150  148  149 1   
   151  148  157 1   
   152  149  150 1   
   153  149  152 1   
   154  149  158 1   
   155  150  151 2   
   156  150  163 1   
   157  152  153 1   
   158  152  159 1   
   159  152  160 1   
   160  153  154 1   
   161  153  161 1   
   162  153  162 1   
   163  154  155 1   
   164  154  156 1   
   165  163  164 1   
   166  163  168 1   
   167  164  165 1   
   168  164  166 1   
   169  164  167 1   
   170  170  171 1   
   171  170  172 1   
   172  173  174 1   
   173  173  175 1   
   174  176  177 1   
   175  176  178 1   
   176  179  180 1   
   177  179  181 1   
   178  182  183 1   
   179  182  184 1   
@<TRIPOS>SUBSTRUCTURE
     1 MOL         1 TEMP              0 ****  ****    0 ROOT
