@<TRIPOS>MOLECULE
MOL
  192   187     1     0     0
SMALL
resp


@<TRIPOS>ATOM
      1 C1          5.6620   -1.1810    6.1960 c3        1 MOL     -0.233349
      2 C2          5.3000   -0.7350    4.7280 c         1 MOL      0.702183
      3 O1          5.0640    0.4440    4.4340 o         1 MOL     -0.593192
      4 H1          5.4680   -2.2470    6.3080 hc        1 MOL      0.055275
      5 H2          6.7160   -0.9810    6.3870 hc        1 MOL      0.055275
      6 H3          5.0520   -0.6240    6.9060 hc        1 MOL      0.055275
      7 N1          5.1920   -1.7310    3.8350 n         1 MOL     -0.448194
      8 C3          4.9480   -1.5760    2.4140 c3        1 MOL      0.395060
      9 C4          3.5730   -1.1670    2.0160 c         1 MOL      0.162185
     10 O2          3.2650   -1.0560    0.8060 o         1 MOL     -0.399253
     11 C5          5.3570   -2.8480    1.5800 c3        1 MOL     -0.286910
     12 C6          6.7650   -3.2900    1.9010 c         1 MOL      0.682825
     13 O3          6.9630   -3.8310    3.0200 o         1 MOL     -0.690850
     14 O4          7.6800   -2.8840    1.1590 o         1 MOL     -0.690850
     15 H4          5.4180   -2.6900    4.0430 hn        1 MOL      0.232602
     16 H5          5.6470   -0.7880    2.1280 h1        1 MOL      0.042255
     17 H6          5.2950   -2.6600    0.5140 hc        1 MOL      0.024571
     18 H7          4.6130   -3.6250    1.7890 hc        1 MOL      0.024571
     19 N2          2.7160   -0.8350    2.9830 n         1 MOL     -0.302624
     20 C7          1.2700   -0.6580    2.8310 c3        1 MOL      0.406907
     21 C8          0.7120    0.7750    2.8780 c         1 MOL      0.146266
     22 O5          1.1140    1.5650    3.7110 o         1 MOL     -0.441430
     23 C9          0.4750   -1.4990    3.8280 c3        1 MOL     -0.267128
     24 C10         0.4910   -3.0860    3.5420 c3        1 MOL      0.100321
     25 C11        -0.7270   -3.7910    4.1730 c3        1 MOL     -0.022788
     26 C12        -0.6900   -5.2460    3.6640 c3        1 MOL     -0.013002
     27 N3         -2.0120   -5.9060    3.7390 n4        1 MOL     -0.209743
     28 H8          3.0620   -0.9020    3.9340 hn        1 MOL      0.180032
     29 H9          1.0650   -1.0490    1.8270 h1        1 MOL      0.031221
     30 H10        -0.5680   -1.2080    3.7620 hc        1 MOL      0.085058
     31 H11         0.9040   -1.2730    4.8040 hc        1 MOL      0.085058
     32 H12         1.4660   -3.4650    3.8350 hc        1 MOL     -0.016785
     33 H13         0.4820   -3.2030    2.4550 hc        1 MOL     -0.016785
     34 H14        -1.7040   -3.3440    4.0120 hc        1 MOL      0.030921
     35 H15        -0.6140   -3.7520    5.2550 hc        1 MOL      0.030921
     36 H16         0.0960   -5.8800    4.0950 hx        1 MOL      0.084334
     37 H17        -0.4890   -5.2090    2.5930 hx        1 MOL      0.084334
     38 H18        -2.3120   -5.9990    4.6950 hn        1 MOL      0.291197
     39 H19        -2.7160   -5.3100    3.3310 hn        1 MOL      0.291197
     40 H20        -2.0520   -6.8460    3.3780 hn        1 MOL      0.291197
     41 N4         -0.3200    1.1770    2.1880 n         1 MOL     -0.058067
     42 C13        -0.9790    0.5910    1.0160 c3        1 MOL     -0.368889
     43 C14        -1.4640   -0.8890    1.1270 c         1 MOL      0.403021
     44 O6         -0.8870   -1.8050    0.5410 o         1 MOL     -0.518958
     45 C15        -0.3240    0.8990   -0.2880 c3        1 MOL     -0.186230
     46 C16        -0.0350    2.3710   -0.5200 c         1 MOL      0.596637
     47 O7          0.8120    2.7580   -1.3830 o         1 MOL     -0.721797
     48 O8         -0.7100    3.2680    0.1150 o         1 MOL     -0.721797
     49 H21        -0.5340    2.1520    2.3150 hn        1 MOL      0.189660
     50 H22        -1.9300    1.1100    0.9140 h1        1 MOL      0.161105
     51 H23        -0.9930    0.6000   -1.0910 hc        1 MOL      0.136109
     52 H24         0.5760    0.3030   -0.4180 hc        1 MOL      0.136109
     53 N5         -2.4580   -1.2270    2.0030 n         1 MOL     -0.147218
     54 C17        -3.3350   -0.2980    2.6470 c3        1 MOL      0.004023
     55 C18        -4.6920   -0.9250    3.0460 c         1 MOL      0.431283
     56 O9         -4.8630   -2.1500    3.1830 o         1 MOL     -0.567763
     57 H25        -2.7980   -2.1750    1.9270 hn        1 MOL      0.176039
     58 H26        -3.5500    0.6050    2.0780 h1        1 MOL      0.041229
     59 H27        -2.7510   -0.0490    3.5360 h1        1 MOL      0.041229
     60 N6         -5.7290   -0.1200    3.3450 n         1 MOL     -0.217517
     61 C19        -5.8660    1.3500    3.2700 c3        1 MOL     -0.245243
     62 C20        -6.4270    1.7880    1.9280 c         1 MOL      0.455336
     63 O10        -7.2240    1.0310    1.3370 o         1 MOL     -0.457608
     64 C21        -6.7530    1.9260    4.4570 c3        1 MOL      0.054022
     65 C22        -7.9890    1.1130    4.7180 c         1 MOL      0.721765
     66 O11        -8.9940    1.8630    4.7460 o         1 MOL     -0.698834
     67 O12        -7.9750   -0.0690    5.1150 o         1 MOL     -0.698834
     68 H28        -6.4660   -0.6050    3.8460 hn        1 MOL      0.240798
     69 H29        -4.8970    1.8290    3.3780 h1        1 MOL      0.064240
     70 H30        -6.9970    2.9790    4.3230 hc        1 MOL     -0.016067
     71 H31        -6.1730    1.7920    5.3820 hc        1 MOL     -0.016067
     72 N7         -6.2130    3.0570    1.4890 n         1 MOL     -0.191145
     73 C23        -6.8980    3.6720    0.3220 c3        1 MOL     -0.299536
     74 C24        -6.5840    2.8930   -0.9560 c         1 MOL      0.608529
     75 O13        -7.5150    2.6940   -1.7290 o         1 MOL     -0.563495
     76 H32        -5.5130    3.6360    1.9180 hn        1 MOL      0.212750
     77 H33        -6.6390    4.7090    0.1030 h1        1 MOL      0.144344
     78 H34        -7.9470    3.5650    0.5840 h1        1 MOL      0.144344
     79 N8         -5.3870    2.3710   -1.1490 n         1 MOL     -0.329969
     80 C25        -5.2400    1.2640   -2.1800 c3        1 MOL     -0.149766
     81 C26        -4.5580    0.0590   -1.5160 c         1 MOL      0.583847
     82 O14        -3.7000    0.2280   -0.7080 o         1 MOL     -0.437286
     83 C27        -4.5060    1.7570   -3.4480 c3        1 MOL      0.071658
     84 C28        -3.0640    2.2230   -3.0970 c3        1 MOL     -0.018074
     85 O15        -5.1090    2.8730   -4.0500 oh        1 MOL     -0.598683
     86 H35        -4.6820    2.6170   -0.4730 hn        1 MOL      0.204330
     87 H36        -6.2060    0.9220   -2.5470 h1        1 MOL      0.146569
     88 H37        -4.3930    0.9130   -4.1180 h1        1 MOL      0.068175
     89 H38        -5.9670    2.6410   -4.4430 ho        1 MOL      0.424014
     90 H39        -2.5470    2.3170   -4.0510 hc        1 MOL      0.049652
     91 H40        -3.0940    3.0880   -2.4350 hc        1 MOL      0.049652
     92 H41        -2.5470    1.4290   -2.5530 hc        1 MOL      0.049652
     93 N9         -4.9110   -1.1440   -1.8810 n         1 MOL     -0.468241
     94 C29        -4.3490   -2.3960   -1.2720 c3        1 MOL     -0.281584
     95 C30        -3.3990   -3.1000   -2.1990 c         1 MOL      0.456389
     96 O16        -2.9930   -4.2330   -1.9290 o         1 MOL     -0.537376
     97 C31        -5.5670   -3.3690   -0.8260 c3        1 MOL      0.213858
     98 C32        -6.3570   -3.8860   -2.0170 c3        1 MOL      0.021210
     99 C33        -6.4420   -2.7000    0.2940 c3        1 MOL     -0.281304
    100 C34        -7.4870   -4.9030   -1.6280 c3        1 MOL     -0.357413
    101 H42        -5.7470   -1.2250   -2.4290 hn        1 MOL      0.288385
    102 H43        -3.7370   -2.1820   -0.3880 h1        1 MOL      0.195254
    103 H44        -5.0580   -4.2310   -0.3870 hc        1 MOL      0.003136
    104 H45        -5.6820   -4.3260   -2.7520 hc        1 MOL      0.028108
    105 H46        -6.7870   -3.0030   -2.4810 hc        1 MOL      0.028108
    106 H47        -6.7710   -3.4220    1.0320 hc        1 MOL      0.086702
    107 H48        -5.8360   -1.9620    0.8340 hc        1 MOL      0.086702
    108 H49        -7.3590   -2.2090   -0.0350 hc        1 MOL      0.086702
    109 H50        -7.9740   -5.2790   -2.5290 hc        1 MOL      0.097158
    110 H51        -7.0580   -5.5920   -0.9010 hc        1 MOL      0.097158
    111 H52        -8.3420   -4.4420   -1.1300 hc        1 MOL      0.097158
    112 N10        -2.9420   -2.3660   -3.2220 n         1 MOL     -0.156269
    113 C35        -2.0100   -2.7070   -4.3420 c3        1 MOL     -0.220964
    114 C36        -0.5380   -2.9340   -3.9310 c         1 MOL      0.623477
    115 O17         0.2630   -3.2940   -4.7900 o         1 MOL     -0.562808
    116 C37        -2.3500   -1.8960   -5.6350 c3        1 MOL      0.330557
    117 C38        -1.8710   -0.4930   -5.5350 c3        1 MOL     -0.143718
    118 O18        -3.7300   -1.7730   -5.8220 oh        1 MOL     -0.657668
    119 H53        -3.2370   -1.4110   -3.3330 hn        1 MOL      0.153419
    120 H54        -2.3480   -3.7310   -4.5580 h1        1 MOL      0.111098
    121 H55        -1.9740   -2.4620   -6.4860 h1        1 MOL      0.031062
    122 H56        -4.1260   -2.5490   -6.2170 ho        1 MOL      0.415127
    123 H57        -1.9380    0.0030   -6.5010 hc        1 MOL      0.050326
    124 H58        -2.5000    0.0920   -4.8720 hc        1 MOL      0.050326
    125 H59        -0.8470   -0.4220   -5.1820 hc        1 MOL      0.050326
    126 N11        -0.2540   -2.8340   -2.6260 n         1 MOL     -0.600701
    127 C39         1.0790   -2.4480   -2.0480 c3        1 MOL      0.051496
    128 C40         1.8320   -1.2840   -2.6890 c         1 MOL      0.453519
    129 O19         1.3500   -0.6220   -3.6140 o         1 MOL     -0.459065
    130 C41         1.9670   -3.6960   -1.9770 c3        1 MOL      0.439995
    131 C42         3.0050   -3.7660   -0.8480 c3        1 MOL     -0.495898
    132 O20         2.6580   -3.9170   -3.1730 oh        1 MOL     -0.676117
    133 H60        -1.0850   -2.8420   -2.0420 hn        1 MOL      0.336827
    134 H61         0.8630   -2.1990   -1.0150 h1        1 MOL      0.062619
    135 H62         1.3410   -4.5810   -1.8270 h1        1 MOL     -0.007907
    136 H63         2.0380   -3.9040   -3.9040 ho        1 MOL      0.423573
    137 H64         2.6100   -3.3350    0.0690 hc        1 MOL      0.142728
    138 H65         3.1730   -4.8270   -0.6870 hc        1 MOL      0.142728
    139 H66         3.9310   -3.2940   -1.1910 hc        1 MOL      0.142728
    140 N12         3.0070   -0.8660   -2.1680 n         1 MOL     -0.285585
    141 C43         3.9720   -0.0460   -2.8110 c3        1 MOL     -0.087212
    142 C44         4.5870    1.1220   -2.0230 c         1 MOL      0.735971
    143 O21         5.3050    1.9950   -2.6130 o         1 MOL     -0.629116
    144 C45         5.0630   -0.8850   -3.5480 c3        1 MOL     -0.217256
    145 C46         6.2790   -1.3200   -2.6950 c3        1 MOL      0.042632
    146 C47         7.2160   -2.2590   -3.3920 c3        1 MOL     -0.226783
    147 C48         8.3540   -2.7500   -2.5640 c3        1 MOL     -0.027364
    148 N13         9.1950   -1.5930   -2.1680 n4        1 MOL     -0.323539
    149 H67         3.2740   -1.2620   -1.2770 hn        1 MOL      0.297603
    150 H68         3.4910    0.4610   -3.6470 h1        1 MOL      0.086706
    151 H69         5.4500   -0.2510   -4.3440 hc        1 MOL      0.081208
    152 H70         4.5540   -1.7530   -3.9800 hc        1 MOL      0.081208
    153 H71         5.8430   -1.8870   -1.8740 hc        1 MOL      0.042676
    154 H72         6.6520   -0.3730   -2.3210 hc        1 MOL      0.042676
    155 H73         7.6590   -1.9060   -4.3220 hc        1 MOL      0.096957
    156 H74         6.5720   -3.1150   -3.5950 hc        1 MOL      0.096957
    157 H75         9.0310   -3.4060   -3.1020 hx        1 MOL      0.115342
    158 H76         8.0100   -3.3650   -1.7240 hx        1 MOL      0.115342
    159 H77         8.8270   -1.0470   -1.4110 hn        1 MOL      0.314562
    160 H78        10.0950   -1.9150   -1.8140 hn        1 MOL      0.314562
    161 H79         9.4870   -0.9990   -2.9350 hn        1 MOL      0.314562
    162 N14         4.3970    1.1470   -0.6800 n         1 MOL     -0.422035
    163 C49         4.6450    2.4290    0.1400 c3        1 MOL     -0.007020
    164 C50         6.1640    2.5020    0.5930 c         1 MOL      0.296252
    165 O22         6.8720    1.4680    0.9220 o         1 MOL     -0.482367
    166 C51         3.5820    2.4300    1.2190 c3        1 MOL      0.490209
    167 C52         3.5250    3.6500    2.2180 c3        1 MOL     -0.856944
    168 C53         3.6000    4.9970    1.5170 c         1 MOL      1.063419
    169 O23         2.5910    5.4470    0.9990 o         1 MOL     -0.869705
    170 O24         4.7240    5.5280    1.2870 o         1 MOL     -0.869705
    171 H80         3.7820    0.4340   -0.3140 hn        1 MOL      0.059263
    172 H81         4.4380    3.3090   -0.4640 h1        1 MOL      0.032626
    173 H82         3.6890    1.5530    1.8610 hc        1 MOL     -0.006362
    174 H83         2.6670    2.4740    0.6300 hc        1 MOL     -0.006362
    175 H84         4.3090    3.6910    2.9750 hc        1 MOL      0.203215
    176 H85         2.5790    3.6300    2.7540 hc        1 MOL      0.203215
    177 N15         6.7370    3.6970    0.7650 n         1 MOL     -0.258571
    178 C54         8.1670    3.8800    0.9870 c3        1 MOL     -0.099504
    179 H86         8.4790    4.8390    0.5720 h1        1 MOL      0.064902
    180 H87         8.3740    3.8640    2.0570 h1        1 MOL      0.064902
    181 H88         8.7180    3.0770    0.4980 h1        1 MOL      0.064902
    182 H89         6.1480    4.4680    0.4960 hn        1 MOL      0.399422
    183 Ca1         0.6030    5.2800   -0.6050 Ca        1 MOL      1.706957
    184 O25         0.3020    7.3620   -2.5680 oh        1 MOL     -0.813445
    185 H90         0.3550    8.1940   -2.0930 ho        1 MOL      0.412859
    186 H91         0.8060    7.5040   -3.3700 ho        1 MOL      0.412859
    187 O26        -0.8920    4.8290   -2.7690 oh        1 MOL     -0.813445
    188 H92        -0.7250    4.8680   -3.7180 ho        1 MOL      0.412859
    189 H93        -1.6180    5.4340   -2.6370 ho        1 MOL      0.412859
    190 O27         2.7680    4.8450   -2.1590 oh        1 MOL     -0.813445
    191 H94         3.3020    5.4900   -2.6100 ho        1 MOL      0.412859
    192 H95         2.5970    4.1700   -2.8160 ho        1 MOL      0.412859
@<TRIPOS>BOND
     1    1    2 1   
     2    1    4 1   
     3    1    5 1   
     4    1    6 1   
     5    2    3 2   
     6    2    7 1   
     7    7    8 1   
     8    7   15 1   
     9    8    9 1   
    10    8   11 1   
    11    8   16 1   
    12    9   10 2   
    13    9   19 1   
    14   11   12 1   
    15   11   17 1   
    16   11   18 1   
    17   12   13 1   
    18   12   14 1   
    19   19   20 1   
    20   19   28 1   
    21   20   21 1   
    22   20   23 1   
    23   20   29 1   
    24   21   22 2   
    25   21   41 1   
    26   23   24 1   
    27   23   30 1   
    28   23   31 1   
    29   24   25 1   
    30   24   32 1   
    31   24   33 1   
    32   25   26 1   
    33   25   34 1   
    34   25   35 1   
    35   26   27 1   
    36   26   36 1   
    37   26   37 1   
    38   27   38 1   
    39   27   39 1   
    40   27   40 1   
    41   41   42 1   
    42   41   49 1   
    43   42   43 1   
    44   42   45 1   
    45   42   50 1   
    46   43   44 2   
    47   43   53 1   
    48   45   46 1   
    49   45   51 1   
    50   45   52 1   
    51   46   47 1   
    52   46   48 1   
    53   53   54 1   
    54   53   57 1   
    55   54   55 1   
    56   54   58 1   
    57   54   59 1   
    58   55   56 2   
    59   55   60 1   
    60   60   61 1   
    61   60   68 1   
    62   61   62 1   
    63   61   64 1   
    64   61   69 1   
    65   62   63 2   
    66   62   72 1   
    67   64   65 1   
    68   64   70 1   
    69   64   71 1   
    70   65   66 1   
    71   65   67 1   
    72   72   73 1   
    73   72   76 1   
    74   73   74 1   
    75   73   77 1   
    76   73   78 1   
    77   74   75 2   
    78   74   79 1   
    79   79   80 1   
    80   79   86 1   
    81   80   81 1   
    82   80   83 1   
    83   80   87 1   
    84   81   82 2   
    85   81   93 1   
    86   83   84 1   
    87   83   85 1   
    88   83   88 1   
    89   84   90 1   
    90   84   91 1   
    91   84   92 1   
    92   85   89 1   
    93   93   94 1   
    94   93  101 1   
    95   94   95 1   
    96   94   97 1   
    97   94  102 1   
    98   95   96 2   
    99   95  112 1   
   100   97   98 1   
   101   97   99 1   
   102   97  103 1   
   103   98  100 1   
   104   98  104 1   
   105   98  105 1   
   106   99  106 1   
   107   99  107 1   
   108   99  108 1   
   109  100  109 1   
   110  100  110 1   
   111  100  111 1   
   112  112  113 1   
   113  112  119 1   
   114  113  114 1   
   115  113  116 1   
   116  113  120 1   
   117  114  115 2   
   118  114  126 1   
   119  116  117 1   
   120  116  118 1   
   121  116  121 1   
   122  117  123 1   
   123  117  124 1   
   124  117  125 1   
   125  118  122 1   
   126  126  127 1   
   127  126  133 1   
   128  127  128 1   
   129  127  130 1   
   130  127  134 1   
   131  128  129 2   
   132  128  140 1   
   133  130  131 1   
   134  130  132 1   
   135  130  135 1   
   136  131  137 1   
   137  131  138 1   
   138  131  139 1   
   139  132  136 1   
   140  140  141 1   
   141  140  149 1   
   142  141  142 1   
   143  141  144 1   
   144  141  150 1   
   145  142  143 2   
   146  142  162 1   
   147  144  145 1   
   148  144  151 1   
   149  144  152 1   
   150  145  146 1   
   151  145  153 1   
   152  145  154 1   
   153  146  147 1   
   154  146  155 1   
   155  146  156 1   
   156  147  148 1   
   157  147  157 1   
   158  147  158 1   
   159  148  159 1   
   160  148  160 1   
   161  148  161 1   
   162  162  163 1   
   163  162  171 1   
   164  163  164 1   
   165  163  166 1   
   166  163  172 1   
   167  164  165 2   
   168  164  177 1   
   169  166  167 1   
   170  166  173 1   
   171  166  174 1   
   172  167  168 1   
   173  167  175 1   
   174  167  176 1   
   175  168  169 1   
   176  168  170 1   
   177  177  178 1   
   178  177  182 1   
   179  178  179 1   
   180  178  180 1   
   181  178  181 1   
   182  184  185 1   
   183  184  186 1   
   184  187  188 1   
   185  187  189 1   
   186  190  191 1   
   187  190  192 1   
@<TRIPOS>SUBSTRUCTURE
     1 MOL         1 TEMP              0 ****  ****    0 ROOT
