@<TRIPOS>MOLECULE
MOL
  182   178     1     0     0
SMALL
resp


@<TRIPOS>ATOM
      1 C1          0.1320   -3.3020    6.3320 c3        1 MOL     -0.501481
      2 C2          0.4830   -3.1020    4.8340 c         1 MOL      0.784803
      3 O1         -0.4470   -3.0200    3.9870 o         1 MOL     -0.588589
      4 H1          0.6450   -4.1870    6.7090 hc        1 MOL      0.150406
      5 H2          0.4510   -2.4280    6.9000 hc        1 MOL      0.150406
      6 H3         -0.9450   -3.4330    6.4390 hc        1 MOL      0.150406
      7 N1          1.7600   -3.1110    4.4150 n         1 MOL     -0.650803
      8 C3          2.1270   -2.9830    2.9720 c3        1 MOL      0.302661
      9 C4          2.0380   -4.2970    2.1680 c         1 MOL      0.352099
     10 O2          2.0740   -5.4320    2.6480 o         1 MOL     -0.525613
     11 C5          3.4440   -2.1800    2.8740 c3        1 MOL     -0.367489
     12 C6          3.6430   -1.4440    1.5820 c         1 MOL      0.684207
     13 O3          4.2450   -0.3640    1.3930 o         1 MOL     -0.727678
     14 O4          3.0340   -1.7660    0.5690 o         1 MOL     -0.727678
     15 H4          2.4490   -2.9220    5.1290 hn        1 MOL      0.330249
     16 H5          1.4160   -2.3130    2.4780 h1        1 MOL     -0.088905
     17 H6          4.3380   -2.7810    3.0090 hc        1 MOL      0.136963
     18 H7          3.3990   -1.4090    3.6380 hc        1 MOL      0.136963
     19 N2          1.7990   -4.1090    0.8800 n         1 MOL     -0.123256
     20 C7          2.0180   -5.1250   -0.2070 c3        1 MOL     -0.134425
     21 C8          3.2320   -4.9820   -1.0070 c         1 MOL      0.705760
     22 O5          3.4000   -5.8330   -1.8410 o         1 MOL     -0.574980
     23 C9          0.7630   -5.1660   -1.1060 c3        1 MOL      0.104999
     24 C10        -0.4920   -5.8350   -0.4590 c3        1 MOL     -0.043912
     25 C11        -1.6930   -5.8380   -1.4210 c3        1 MOL      0.132914
     26 C12        -2.8250   -6.7340   -0.9190 c3        1 MOL     -0.061300
     27 N3         -3.7630   -7.0400   -1.9620 n4        1 MOL     -0.090284
     28 H8          1.7280   -3.1440    0.6120 hn        1 MOL      0.318393
     29 H9          2.1130   -6.0980    0.2850 h1        1 MOL      0.105430
     30 H10         1.0140   -5.7720   -1.9810 hc        1 MOL     -0.037405
     31 H11         0.4950   -4.1890   -1.5000 hc        1 MOL     -0.037405
     32 H12        -0.7540   -5.2670    0.4380 hc        1 MOL      0.022946
     33 H13        -0.2350   -6.8170   -0.0600 hc        1 MOL      0.022946
     34 H14        -1.3640   -6.3010   -2.3480 hc        1 MOL     -0.003343
     35 H15        -2.1350   -4.8620   -1.6010 hc        1 MOL     -0.003343
     36 H16        -3.2990   -6.1710   -0.1250 hx        1 MOL      0.087773
     37 H17        -2.4220   -7.7050   -0.6380 hx        1 MOL      0.087773
     38 H18        -4.4970   -6.3690   -2.1420 hn        1 MOL      0.208466
     39 H19        -3.2440   -6.9840   -2.8170 hn        1 MOL      0.208466
     40 H20        -4.1630   -7.9620   -1.8290 hn        1 MOL      0.208466
     41 N4          4.1370   -4.0240   -0.7860 n         1 MOL     -0.510918
     42 C13         5.4390   -3.9740   -1.5190 c3        1 MOL     -0.063953
     43 C14         6.6060   -3.2370   -0.9190 c         1 MOL      0.424547
     44 O6          7.6230   -2.9680   -1.6010 o         1 MOL     -0.504586
     45 C15         5.3100   -3.3990   -2.9460 c3        1 MOL     -0.103060
     46 C16         4.9070   -1.9680   -3.0380 c         1 MOL      0.686381
     47 O7          4.6330   -1.2920   -1.9980 o         1 MOL     -0.697887
     48 O8          4.9030   -1.4110   -4.1460 o         1 MOL     -0.697887
     49 H21         3.8980   -3.1350   -0.3670 hn        1 MOL      0.202044
     50 H22         5.7660   -4.9980   -1.6600 h1        1 MOL      0.133824
     51 H23         4.5640   -4.0000   -3.4670 hc        1 MOL      0.061412
     52 H24         6.2180   -3.6200   -3.5140 hc        1 MOL      0.061412
     53 N5          6.3900   -2.9310    0.3610 n         1 MOL     -0.217070
     54 C17         7.4470   -2.1980    1.1730 c3        1 MOL     -0.266750
     55 C18         7.8120   -0.7860    0.6520 c         1 MOL      0.454476
     56 O9          8.8630   -0.2620    0.8670 o         1 MOL     -0.483062
     57 H25         5.4180   -3.0850    0.5900 hn        1 MOL      0.153860
     58 H26         8.3460   -2.7830    0.9760 h1        1 MOL      0.142646
     59 H27         7.2430   -2.1640    2.2470 h1        1 MOL      0.142646
     60 N6          6.9790   -0.2890   -0.2620 n         1 MOL     -0.187442
     61 C19         7.1690    1.0760   -0.8100 c3        1 MOL     -0.017206
     62 C20         6.0480    2.0570   -0.7280 c         1 MOL      0.594837
     63 O10         4.9660    1.5300   -0.8230 o         1 MOL     -0.594982
     64 C21         7.7090    0.8600   -2.1750 c3        1 MOL     -0.164749
     65 C22         9.0920    0.3680   -2.2000 c         1 MOL      0.599049
     66 N7          9.3670   -0.9130   -2.3260 n         1 MOL     -0.748418
     67 O11        10.0600    1.1620   -2.0520 o         1 MOL     -0.580780
     68 H28         6.0970   -0.7240   -0.4880 hn        1 MOL      0.345614
     69 H29         7.9500    1.5670   -0.2410 h1        1 MOL      0.039748
     70 H30         7.6650    1.8140   -2.6910 hc        1 MOL      0.043902
     71 H31         7.0520    0.1360   -2.6570 hc        1 MOL      0.043902
     72 H32         8.6370   -1.6120   -2.3250 hn        1 MOL      0.364880
     73 H33        10.3070   -1.2680   -2.2960 hn        1 MOL      0.364880
     74 N8          6.2920    3.3720   -0.7180 n         1 MOL     -0.440512
     75 C23         5.2890    4.3440   -1.1020 c3        1 MOL      0.041486
     76 C24         4.1960    4.4400    0.0160 c         1 MOL      0.511888
     77 O12         4.4790    4.2160    1.1970 o         1 MOL     -0.476293
     78 H34         7.1940    3.7640   -0.4670 hn        1 MOL      0.321947
     79 H35         4.8790    3.8810   -2.0070 h1        1 MOL      0.057394
     80 H36         5.6940    5.3200   -1.3550 h1        1 MOL      0.057394
     81 N9          2.9780    4.8820   -0.3450 n         1 MOL     -0.537716
     82 C25         1.7640    4.8070    0.4600 c3        1 MOL      0.157401
     83 C26         1.3810    3.3820    0.8640 c         1 MOL      0.708342
     84 O13         1.9600    2.4350    0.2990 o         1 MOL     -0.595387
     85 C27         0.5980    5.6380   -0.0970 c3        1 MOL     -0.309961
     86 C28         0.8700    7.0860   -0.1450 ca        1 MOL      0.181398
     87 C29         0.6960    7.9350    1.0170 ca        1 MOL     -0.214205
     88 C30         1.3680    7.6330   -1.3620 ca        1 MOL     -0.214205
     89 C31         1.0980    9.2830    1.0070 ca        1 MOL     -0.222999
     90 C32         1.6340    9.0150   -1.3550 ca        1 MOL     -0.222999
     91 C33         1.5710    9.8130   -0.1900 ca        1 MOL      0.310218
     92 O14         1.8640   11.0820   -0.3740 oh        1 MOL     -0.456946
     93 H37         2.8060    4.9900   -1.3380 hn        1 MOL      0.279973
     94 H38         2.0850    5.3670    1.3340 h1        1 MOL      0.073332
     95 H39        -0.2240    5.4920    0.6120 hc        1 MOL      0.083604
     96 H40         0.2780    5.2250   -1.0490 hc        1 MOL      0.083604
     97 H41         0.2240    7.5450    1.9090 ha        1 MOL      0.149355
     98 H42         1.5660    7.0690   -2.2570 ha        1 MOL      0.149355
     99 H43         1.0840    9.9250    1.8770 ha        1 MOL      0.149166
    100 H44         1.9170    9.4860   -2.2820 ha        1 MOL      0.149166
    101 H45         2.0570   11.4600    0.4860 ho        1 MOL      0.369425
    102 N10         0.4910    3.1370    1.8310 n         1 MOL     -0.823338
    103 C34         0.1710    1.8010    2.4530 c3        1 MOL      0.374206
    104 C35        -0.1320    0.6290    1.4450 c         1 MOL      0.235174
    105 O15         0.8160    0.0260    1.0000 o         1 MOL     -0.338091
    106 C36         1.1050    1.4290    3.6250 c3        1 MOL      0.181632
    107 C37         0.5420    0.3020    4.5350 c3        1 MOL     -0.461973
    108 C38         1.6030    2.6550    4.3960 c3        1 MOL     -0.089558
    109 C39        -0.6830    0.5160    5.4260 c3        1 MOL     -0.077350
    110 H46        -0.0490    3.9410    2.0960 hn        1 MOL      0.363972
    111 H47        -0.7620    1.9740    2.9880 h1        1 MOL      0.017102
    112 H48         2.0010    1.0970    3.0830 hc        1 MOL      0.018243
    113 H49         1.3480   -0.1260    5.1310 hc        1 MOL      0.146467
    114 H50         0.2560   -0.5580    3.9140 hc        1 MOL      0.146467
    115 H51         0.6470    3.0650    4.7370 hc        1 MOL      0.024787
    116 H52         2.3090    2.4100    5.1870 hc        1 MOL      0.024787
    117 H53         2.0280    3.4460    3.7790 hc        1 MOL      0.024787
    118 H54        -0.9730   -0.4220    5.8890 hc        1 MOL      0.032070
    119 H55        -0.4710    1.2760    6.1740 hc        1 MOL      0.032070
    120 H56        -1.4550    0.8750    4.7370 hc        1 MOL      0.032070
    121 N11        -1.3400    0.2200    1.3250 n         1 MOL     -0.105428
    122 C40        -1.8090   -0.7740    0.3310 c3        1 MOL     -0.391594
    123 C41        -3.2530   -0.7970   -0.1120 c         1 MOL      0.733990
    124 O16        -3.6750   -1.5490   -0.9430 o         1 MOL     -0.565848
    125 C42        -1.4160   -2.0900    0.9010 c3        1 MOL      0.584670
    126 O17        -2.0920   -2.3600    2.0950 oh        1 MOL     -0.650265
    127 H57        -1.9860    0.8430    1.8040 hn        1 MOL      0.181617
    128 H58        -1.2840   -0.5880   -0.6110 h1        1 MOL      0.101576
    129 H59        -0.3350   -2.0720    1.0720 h1        1 MOL     -0.142348
    130 H60        -1.5570   -2.9510    0.2490 h1        1 MOL     -0.142348
    131 H61        -1.3880   -2.6000    2.7000 ho        1 MOL      0.400568
    132 N12        -4.2000   -0.0180    0.5070 n         1 MOL     -0.558861
    133 C43        -5.5990    0.0640    0.1100 c3        1 MOL      0.076115
    134 C44        -5.6090    0.5040   -1.3740 c         1 MOL      0.692147
    135 O18        -4.7070    1.2680   -1.7740 o         1 MOL     -0.602855
    136 C45        -6.3950    0.8370    1.2130 c3        1 MOL     -0.284050
    137 H62        -3.7760    0.6540    1.1370 hn        1 MOL      0.297005
    138 H63        -5.9320   -0.9710    0.0950 h1        1 MOL      0.107678
    139 H64        -6.2750    0.3110    2.1500 hc        1 MOL      0.100881
    140 H65        -6.0390    1.8520    1.3860 hc        1 MOL      0.100881
    141 H66        -7.4850    0.8070    1.0810 hc        1 MOL      0.100881
    142 N13        -6.6460    0.2390   -2.1530 n         1 MOL     -0.679753
    143 C46        -7.9110   -0.5740   -1.8980 c3        1 MOL      0.355324
    144 C47        -9.0060   -0.1420   -2.8530 c         1 MOL      0.469726
    145 O19        -8.6350    0.1590   -3.9810 o         1 MOL     -0.544832
    146 C48        -7.6090   -2.0390   -2.2560 c3        1 MOL     -0.268796
    147 H67        -6.6360    0.4550   -3.1410 hn        1 MOL      0.350512
    148 H68        -8.2520   -0.6050   -0.8640 h1        1 MOL     -0.026068
    149 H69        -8.5730   -2.5280   -2.1180 hc        1 MOL      0.072692
    150 H70        -7.3000   -2.1430   -3.2940 hc        1 MOL      0.072692
    151 H71        -6.8760   -2.4000   -1.5400 hc        1 MOL      0.072692
    152 N14       -10.2480    0.1120   -2.4590 n         1 MOL     -0.481846
    153 C49       -10.7890    0.0360   -1.0540 c3        1 MOL      0.042144
    154 C50       -10.1700    1.0630   -0.1300 c         1 MOL      0.282241
    155 O20        -9.7780    0.7680    0.9590 o         1 MOL     -0.490766
    156 C51       -12.2690    0.2210   -1.0520 c3        1 MOL      0.025466
    157 C52       -12.9110   -0.3360    0.2370 c3        1 MOL     -0.386886
    158 C53       -14.4570   -0.3340    0.3060 c         1 MOL      0.713943
    159 O21       -15.1280    0.7380    0.3040 o         1 MOL     -0.650950
    160 O22       -15.0210   -1.4450    0.4850 o         1 MOL     -0.650950
    161 H72       -10.8600    0.4200   -3.2070 hn        1 MOL      0.304799
    162 H73       -10.7140   -0.9680   -0.6670 h1        1 MOL      0.103242
    163 H74       -12.6330   -0.3580   -1.9110 hc        1 MOL      0.021896
    164 H75       -12.4710    1.2780   -1.2330 hc        1 MOL      0.021896
    165 H76       -12.5490    0.3140    1.0310 hc        1 MOL      0.119567
    166 H77       -12.5450   -1.3680    0.2640 hc        1 MOL      0.119567
    167 N15       -10.1890    2.3460   -0.4830 n         1 MOL     -0.101704
    168 C54        -9.5030    3.3820    0.3070 c3        1 MOL     -0.317409
    169 H78        -9.8410    3.3330    1.3420 h1        1 MOL      0.130087
    170 H79        -8.4260    3.2170    0.2680 h1        1 MOL      0.130087
    171 H80        -9.7340    4.3650   -0.1040 h1        1 MOL      0.130087
    172 H81       -10.6680    2.5320   -1.3480 hn        1 MOL      0.221780
    173 Ca1         2.7220    0.2160   -0.9410 Ca        1 MOL      1.728962
    174 O23         3.4650    0.7340   -3.3050 oh        1 MOL     -0.865692
    175 H82         4.2130    0.1540   -3.3750 ho        1 MOL      0.423259
    176 H83         3.1900    0.8830   -4.2120 ho        1 MOL      0.423259
    177 O24         1.1580   -1.4510   -2.4830 oh        1 MOL     -0.865692
    178 H84         0.9450   -1.0860   -3.3440 ho        1 MOL      0.423259
    179 H85         0.4670   -2.0910   -2.3110 ho        1 MOL      0.423259
    180 O25         0.3410    1.2880   -1.9190 oh        1 MOL     -0.865692
    181 H86        -0.5610    0.9640   -2.0120 ho        1 MOL      0.423259
    182 H87         0.3610    2.0840   -2.4340 ho        1 MOL      0.423259
@<TRIPOS>BOND
     1    1    2 1   
     2    1    4 1   
     3    1    5 1   
     4    1    6 1   
     5    2    3 2   
     6    2    7 1   
     7    7    8 1   
     8    7   15 1   
     9    8    9 1   
    10    8   11 1   
    11    8   16 1   
    12    9   10 2   
    13    9   19 1   
    14   11   12 1   
    15   11   17 1   
    16   11   18 1   
    17   12   13 1   
    18   12   14 1   
    19   19   20 1   
    20   19   28 1   
    21   20   21 1   
    22   20   23 1   
    23   20   29 1   
    24   21   22 2   
    25   21   41 1   
    26   23   24 1   
    27   23   30 1   
    28   23   31 1   
    29   24   25 1   
    30   24   32 1   
    31   24   33 1   
    32   25   26 1   
    33   25   34 1   
    34   25   35 1   
    35   26   27 1   
    36   26   36 1   
    37   26   37 1   
    38   27   38 1   
    39   27   39 1   
    40   27   40 1   
    41   41   42 1   
    42   41   49 1   
    43   42   43 1   
    44   42   45 1   
    45   42   50 1   
    46   43   44 2   
    47   43   53 1   
    48   45   46 1   
    49   45   51 1   
    50   45   52 1   
    51   46   47 1   
    52   46   48 1   
    53   53   54 1   
    54   53   57 1   
    55   54   55 1   
    56   54   58 1   
    57   54   59 1   
    58   55   56 2   
    59   55   60 1   
    60   60   61 1   
    61   60   68 1   
    62   61   62 1   
    63   61   64 1   
    64   61   69 1   
    65   62   63 2   
    66   62   74 1   
    67   64   65 1   
    68   64   70 1   
    69   64   71 1   
    70   65   66 1   
    71   65   67 2   
    72   66   72 1   
    73   66   73 1   
    74   74   75 1   
    75   74   78 1   
    76   75   76 1   
    77   75   79 1   
    78   75   80 1   
    79   76   77 2   
    80   76   81 1   
    81   81   82 1   
    82   81   93 1   
    83   82   83 1   
    84   82   85 1   
    85   82   94 1   
    86   83   84 2   
    87   83  102 1   
    88   85   86 1   
    89   85   95 1   
    90   85   96 1   
    91   86   87 ar  
    92   86   88 ar  
    93   87   89 ar  
    94   87   97 1   
    95   88   90 ar  
    96   88   98 1   
    97   89   91 ar  
    98   89   99 1   
    99   90   91 ar  
   100   90  100 1   
   101   91   92 1   
   102   92  101 1   
   103  102  103 1   
   104  102  110 1   
   105  103  104 1   
   106  103  106 1   
   107  103  111 1   
   108  104  105 2   
   109  104  121 1   
   110  106  107 1   
   111  106  108 1   
   112  106  112 1   
   113  107  109 1   
   114  107  113 1   
   115  107  114 1   
   116  108  115 1   
   117  108  116 1   
   118  108  117 1   
   119  109  118 1   
   120  109  119 1   
   121  109  120 1   
   122  121  122 1   
   123  121  127 1   
   124  122  123 1   
   125  122  125 1   
   126  122  128 1   
   127  123  124 2   
   128  123  132 1   
   129  125  126 1   
   130  125  129 1   
   131  125  130 1   
   132  126  131 1   
   133  132  133 1   
   134  132  137 1   
   135  133  134 1   
   136  133  136 1   
   137  133  138 1   
   138  134  135 2   
   139  134  142 1   
   140  136  139 1   
   141  136  140 1   
   142  136  141 1   
   143  142  143 1   
   144  142  147 1   
   145  143  144 1   
   146  143  146 1   
   147  143  148 1   
   148  144  145 2   
   149  144  152 1   
   150  146  149 1   
   151  146  150 1   
   152  146  151 1   
   153  152  153 1   
   154  152  161 1   
   155  153  154 1   
   156  153  156 1   
   157  153  162 1   
   158  154  155 2   
   159  154  167 1   
   160  156  157 1   
   161  156  163 1   
   162  156  164 1   
   163  157  158 1   
   164  157  165 1   
   165  157  166 1   
   166  158  159 1   
   167  158  160 1   
   168  167  168 1   
   169  167  172 1   
   170  168  169 1   
   171  168  170 1   
   172  168  171 1   
   173  174  175 1   
   174  174  176 1   
   175  177  178 1   
   176  177  179 1   
   177  180  181 1   
   178  180  182 1   
@<TRIPOS>SUBSTRUCTURE
     1 MOL         1 TEMP              0 ****  ****    0 ROOT
