@<TRIPOS>MOLECULE
MOL
  191   184     1     0     0
SMALL
resp


@<TRIPOS>ATOM
      1 C1          1.0530    1.5860    2.7060 c3        1 MOL     -0.526984
      2 C2          2.2940    1.6380    1.7990 c         1 MOL      0.738999
      3 O1          2.2560    2.1210    0.6240 o         1 MOL     -0.625127
      4 H1          1.2680    0.9730    3.5810 hc        1 MOL      0.142970
      5 H2          0.7920    2.5950    3.0250 hc        1 MOL      0.142970
      6 H3          0.2180    1.1510    2.1550 hc        1 MOL      0.142970
      7 N1          3.3960    1.0330    2.2220 n         1 MOL     -0.432354
      8 C3          4.6470    1.0470    1.4720 c3        1 MOL     -0.441895
      9 C4          5.5180   -0.2410    1.4560 c         1 MOL      0.758187
     10 O2          6.5920   -0.2160    0.8670 o         1 MOL     -0.508158
     11 C5          5.4570    2.2680    1.9430 c3        1 MOL      0.033513
     12 C6          5.9100    2.2800    3.3880 c         1 MOL      0.620221
     13 O3          6.8750    3.0070    3.6010 o         1 MOL     -0.670813
     14 O4          5.4200    1.4890    4.2650 o         1 MOL     -0.670813
     15 H4          3.3180    0.6110    3.1330 hn        1 MOL      0.241232
     16 H5          4.4310    1.2480    0.4200 h1        1 MOL      0.263097
     17 H6          4.9560    3.2140    1.7520 hc        1 MOL      0.054062
     18 H7          6.3470    2.3050    1.3100 hc        1 MOL      0.054062
     19 N2          5.0760   -1.2380    2.1880 n         1 MOL     -0.530334
     20 C7          5.6900   -2.5640    2.3230 c3        1 MOL     -0.014064
     21 C8          6.1580   -3.1880    0.9120 c         1 MOL      0.500605
     22 O5          7.1540   -3.8210    0.8490 o         1 MOL     -0.505554
     23 C9          6.9040   -2.4360    3.2820 c3        1 MOL     -0.127938
     24 C10         6.3720   -2.1800    4.6620 c3        1 MOL      0.243195
     25 C11         7.3730   -1.9550    5.8090 c3        1 MOL     -0.248140
     26 C12         8.3210   -0.7990    5.6540 c3        1 MOL      0.061496
     27 N3          7.7360    0.5250    5.6610 n4        1 MOL     -0.180226
     28 H8          4.3300   -1.0150    2.8290 hn        1 MOL      0.343505
     29 H9          4.9330   -3.1960    2.7830 h1        1 MOL      0.057946
     30 H10         7.4680   -1.5730    2.9500 hc        1 MOL      0.070704
     31 H11         7.6020   -3.2680    3.2120 hc        1 MOL      0.070704
     32 H12         5.8580   -3.0730    5.0250 hc        1 MOL     -0.046892
     33 H13         5.7320   -1.2990    4.7450 hc        1 MOL     -0.046892
     34 H14         7.9550   -2.8600    5.9700 hc        1 MOL      0.079734
     35 H15         6.7930   -1.8610    6.7330 hc        1 MOL      0.079734
     36 H16         8.8950   -0.8710    4.7280 hx        1 MOL      0.060761
     37 H17         9.0050   -0.9080    6.4900 hx        1 MOL      0.060761
     38 H18         6.8870    0.5920    5.1240 hn        1 MOL      0.259342
     39 H19         7.2730    0.6320    6.5470 hn        1 MOL      0.259342
     40 H20         8.3130    1.2810    5.3370 hn        1 MOL      0.259342
     41 N4          5.4070   -3.0100   -0.1440 n         1 MOL     -0.436572
     42 C13         5.7070   -3.2490   -1.5850 c3        1 MOL      0.322325
     43 C14         5.4090   -1.9400   -2.4280 c         1 MOL      0.371512
     44 O6          5.2980   -2.0190   -3.6510 o         1 MOL     -0.510274
     45 C15         4.9920   -4.4660   -2.1330 c3        1 MOL     -0.554653
     46 C16         3.4450   -4.3430   -2.0630 c         1 MOL      0.819230
     47 O7          2.8170   -3.4060   -1.5580 o         1 MOL     -0.724414
     48 O8          2.7810   -5.2800   -2.5350 o         1 MOL     -0.724414
     49 H21         4.4870   -2.6250    0.0400 hn        1 MOL      0.248893
     50 H22         6.7790   -3.3920   -1.6360 h1        1 MOL      0.065310
     51 H23         5.3750   -5.2110   -1.4490 hc        1 MOL      0.148300
     52 H24         5.3530   -4.6390   -3.1450 hc        1 MOL      0.148300
     53 N5          5.2720   -0.8070   -1.7990 n         1 MOL     -0.232530
     54 C17         4.9150    0.4970   -2.3910 c3        1 MOL     -0.012733
     55 C18         6.1890    1.4510   -2.5300 c         1 MOL      0.600955
     56 O9          7.2730    0.9070   -2.5390 o         1 MOL     -0.518336
     57 H25         5.3880   -0.7650   -0.7910 hn        1 MOL      0.088540
     58 H26         4.1820    1.0090   -1.7700 h1        1 MOL      0.062165
     59 H27         4.4640    0.2730   -3.3640 h1        1 MOL      0.062165
     60 N6          6.1710    2.7230   -2.8770 n         1 MOL     -0.690107
     61 C19         4.9590    3.4940   -2.9610 c3        1 MOL      0.582520
     62 C20         4.9440    4.3640   -1.7220 c         1 MOL      0.256484
     63 O10         5.9570    4.8780   -1.2310 o         1 MOL     -0.485459
     64 C21         4.8990    4.2890   -4.3000 c3        1 MOL     -0.262365
     65 C22         4.7390    3.3090   -5.4920 c         1 MOL      0.620633
     66 N7          3.6930    3.5210   -6.2610 n         1 MOL     -0.781250
     67 O11         5.4360    2.3050   -5.7150 o         1 MOL     -0.508542
     68 H28         7.0570    3.1840   -2.9910 hn        1 MOL      0.358618
     69 H29         4.0920    2.8390   -3.0330 h1        1 MOL     -0.059057
     70 H30         5.8190    4.8460   -4.4830 hc        1 MOL      0.063242
     71 H31         4.0480    4.9670   -4.4100 hc        1 MOL      0.063242
     72 H32         3.1360    4.3590   -6.1730 hn        1 MOL      0.360260
     73 H33         3.5600    2.9890   -7.1090 hn        1 MOL      0.360260
     74 N8          3.7440    4.7840   -1.2860 n         1 MOL     -0.306118
     75 C23         2.4180    4.3590   -1.7720 c3        1 MOL     -0.104287
     76 C24         1.2440    4.8260   -0.9140 c         1 MOL      0.729825
     77 O12         1.3410    5.8870   -0.3170 o         1 MOL     -0.562217
     78 H34         3.7640    5.5250   -0.6090 hn        1 MOL      0.280731
     79 H35         2.4870    3.2770   -1.6270 h1        1 MOL      0.031608
     80 H36         2.1870    4.6290   -2.8060 h1        1 MOL      0.031608
     81 N9          0.0770    4.1760   -1.0420 n         1 MOL     -0.693390
     82 C25        -1.1640    4.6800   -0.3390 c3        1 MOL      0.287844
     83 C26        -2.1830    3.5210    0.1250 c         1 MOL      0.571717
     84 O13        -2.0300    2.4360   -0.4240 o         1 MOL     -0.519781
     85 C27        -1.9320    5.6680   -1.2720 c3        1 MOL     -0.144431
     86 C28        -2.9220    6.5890   -0.6250 ca        1 MOL      0.006267
     87 C29        -4.2140    6.6500   -1.1860 ca        1 MOL     -0.098835
     88 C30        -2.6140    7.3040    0.5460 ca        1 MOL     -0.098835
     89 C31        -5.2510    7.4310   -0.5620 ca        1 MOL     -0.320757
     90 C32        -3.5950    8.1130    1.1530 ca        1 MOL     -0.320757
     91 C33        -4.9480    8.1490    0.6010 ca        1 MOL      0.417478
     92 O14        -5.8630    8.9590    1.2380 oh        1 MOL     -0.534989
     93 H37         0.0870    3.3460   -1.6040 hn        1 MOL      0.326479
     94 H38        -0.9110    5.1500    0.6070 h1        1 MOL      0.005742
     95 H39        -2.3530    5.0260   -2.0440 hc        1 MOL      0.071705
     96 H40        -1.2070    6.2950   -1.7870 hc        1 MOL      0.071705
     97 H41        -4.4340    6.2530   -2.1690 ha        1 MOL      0.134850
     98 H42        -1.6430    7.2680    1.0210 ha        1 MOL      0.134850
     99 H43        -6.2420    7.5460   -0.9870 ha        1 MOL      0.163182
    100 H44        -3.4410    8.7320    2.0250 ha        1 MOL      0.163182
    101 H45        -5.6250    9.1580    2.1480 ho        1 MOL      0.378666
    102 N10        -3.0990    3.8290    1.0580 n         1 MOL     -0.503023
    103 C34        -4.1760    2.9210    1.4900 c3        1 MOL      0.016447
    104 C35        -5.1520    2.5160    0.3830 c         1 MOL      0.398380
    105 O15        -5.2090    3.0990   -0.7110 o         1 MOL     -0.510804
    106 C36        -4.9690    3.6040    2.7040 c3        1 MOL      0.010443
    107 C37        -5.7740    4.7690    2.0750 c3        1 MOL      0.079122
    108 C38        -5.9480    2.6860    3.5030 c3        1 MOL     -0.361658
    109 C39        -6.1420    5.8650    3.0510 c3        1 MOL     -0.226770
    110 H46        -3.0820    4.7660    1.4480 hn        1 MOL      0.247618
    111 H47        -3.7540    1.9720    1.8220 h1        1 MOL      0.092313
    112 H48        -4.2290    4.1660    3.2710 hc        1 MOL      0.063841
    113 H49        -6.6850    4.4210    1.5910 hc        1 MOL      0.038926
    114 H50        -5.3410    5.1750    1.1550 hc        1 MOL      0.038926
    115 H51        -5.4760    1.8400    4.0070 hc        1 MOL      0.107960
    116 H52        -6.4840    3.2500    4.2670 hc        1 MOL      0.107960
    117 H53        -6.7630    2.3540    2.8700 hc        1 MOL      0.107960
    118 H54        -5.2800    6.4710    3.3100 hc        1 MOL      0.048228
    119 H55        -6.9190    6.4830    2.5970 hc        1 MOL      0.048228
    120 H56        -6.6610    5.4880    3.9390 hc        1 MOL      0.048228
    121 N11        -5.8650    1.4720    0.5870 n         1 MOL     -0.295251
    122 C40        -6.6330    0.7450   -0.4250 c3        1 MOL      0.053485
    123 C41        -5.7570   -0.1930   -1.2240 c         1 MOL      0.768607
    124 O16        -4.8200   -0.8090   -0.7040 o         1 MOL     -0.534300
    125 C42        -7.8820    0.0290    0.1580 c3        1 MOL     -0.015782
    126 O17        -7.5340   -0.7140    1.3040 oh        1 MOL     -0.530503
    127 H57        -5.8660    1.0670    1.5120 hn        1 MOL      0.245839
    128 H58        -7.0410    1.4670   -1.1360 h1        1 MOL      0.038056
    129 H59        -8.3060   -0.6270   -0.6030 h1        1 MOL      0.064705
    130 H60        -8.6120    0.8150    0.3740 h1        1 MOL      0.064705
    131 H61        -8.1230   -1.4620    1.4010 ho        1 MOL      0.414360
    132 N12        -6.2280   -0.4570   -2.4330 n         1 MOL     -0.663573
    133 C43        -5.7470   -1.6160   -3.3050 c3        1 MOL      0.302051
    134 C44        -5.9430   -2.9780   -2.6400 c         1 MOL      0.271883
    135 O18        -4.9800   -3.7050   -2.6720 o         1 MOL     -0.355007
    136 C45        -4.3780   -1.3180   -4.0230 c3        1 MOL     -0.289590
    137 H62        -7.0780    0.0290   -2.7020 hn        1 MOL      0.303381
    138 H63        -6.4270   -1.7340   -4.1510 h1        1 MOL      0.035714
    139 H64        -4.5110   -0.5820   -4.8060 hc        1 MOL      0.083123
    140 H65        -3.7450   -0.9830   -3.2030 hc        1 MOL      0.083123
    141 H66        -3.8970   -2.1230   -4.5870 hc        1 MOL      0.083123
    142 N13        -7.0510   -3.1950   -1.9750 n         1 MOL     -0.393644
    143 C46        -7.2240   -4.4420   -1.1410 c3        1 MOL      0.186304
    144 C47        -6.1590   -4.7790   -0.0730 c         1 MOL      0.488183
    145 O19        -5.8470   -5.9510    0.0660 o         1 MOL     -0.491260
    146 C48        -7.4880   -5.5660   -2.1430 c3        1 MOL     -0.347239
    147 H67        -7.7220   -2.4420   -2.0220 hn        1 MOL      0.252483
    148 H68        -8.1060   -4.3340   -0.5060 h1        1 MOL      0.035003
    149 H69        -7.8630   -6.4020   -1.5570 hc        1 MOL      0.104309
    150 H70        -8.3050   -5.3280   -2.8240 hc        1 MOL      0.104309
    151 H71        -6.5790   -5.7950   -2.6970 hc        1 MOL      0.104309
    152 N14        -5.5910   -3.7440    0.6200 n         1 MOL     -0.432096
    153 C49        -4.4920   -3.9550    1.5910 c3        1 MOL      0.001797
    154 C50        -5.0910   -3.9630    3.0090 c         1 MOL      0.529212
    155 O20        -4.8270   -4.8520    3.7800 o         1 MOL     -0.508313
    156 C51        -3.4640   -2.8840    1.3060 c3        1 MOL      0.209488
    157 C52        -2.1790   -3.1800    2.0860 c3        1 MOL     -0.263215
    158 C53        -1.5170   -4.5400    1.6910 c         1 MOL      0.705057
    159 O21        -1.4390   -4.8980    0.5270 o         1 MOL     -0.707304
    160 O22        -1.1410   -5.3180    2.5810 o         1 MOL     -0.707304
    161 H72        -5.8830   -2.8150    0.3550 hn        1 MOL      0.170605
    162 H73        -4.0390   -4.9200    1.3720 h1        1 MOL      0.156564
    163 H74        -3.8850   -1.9140    1.5790 hc        1 MOL     -0.078841
    164 H75        -3.2580   -2.8290    0.2320 hc        1 MOL     -0.078841
    165 H76        -2.3720   -3.1200    3.1610 hc        1 MOL      0.035385
    166 H77        -1.5140   -2.3570    1.8480 hc        1 MOL      0.035385
    167 N15        -6.0620   -3.1360    3.2520 n         1 MOL     -0.273662
    168 C54        -6.9080   -3.2520    4.5070 c3        1 MOL     -0.193894
    169 H78        -6.2740   -3.1290    5.3850 h1        1 MOL      0.098459
    170 H79        -7.6740   -2.4770    4.5020 h1        1 MOL      0.098459
    171 H80        -7.3830   -4.2330    4.5360 h1        1 MOL      0.098459
    172 H81        -6.3750   -2.5460    2.4980 hn        1 MOL      0.154726
    173 Ca1         0.4280   -4.4120   -1.3480 Ca        1 MOL      1.722377
    174 O23         0.7100   -3.1570   -3.6790 oh        1 MOL     -0.833553
    175 H82         0.1050   -3.1070   -4.4240 ho        1 MOL      0.414752
    176 H83         1.4170   -2.5480   -3.8990 ho        1 MOL      0.414752
    177 O24         1.0740   -6.8290   -0.7080 oh        1 MOL     -0.833553
    178 H84         1.4840   -7.2780    0.0360 ho        1 MOL      0.414752
    179 H85         1.0160   -7.4970   -1.3860 ho        1 MOL      0.414752
    180 O25        -2.0520   -3.0970   -2.2980 oh        1 MOL     -0.833553
    181 H86        -1.9880   -2.2330   -1.8760 ho        1 MOL      0.414752
    182 H87        -2.9660   -3.1330   -2.6090 ho        1 MOL      0.414752
    183 O26         1.8880   -4.4910    1.0160 oh        1 MOL     -0.833553
    184 H88         1.7790   -4.1880    1.9210 ho        1 MOL      0.414752
    185 H89         2.4620   -5.2500    1.0780 ho        1 MOL      0.414752
    186 O27         0.1490   -1.7970   -0.5040 oh        1 MOL     -0.833553
    187 H90        -0.7040   -1.3680   -0.4880 ho        1 MOL      0.414752
    188 H91         0.7690   -1.0840   -0.6580 ho        1 MOL      0.414752
    189 O28        -0.9960   -5.8280   -3.1220 oh        1 MOL     -0.833553
    190 H92        -1.8840   -6.1530   -3.0410 ho        1 MOL      0.414752
    191 H93        -0.5470   -6.4720   -3.6650 ho        1 MOL      0.414752
@<TRIPOS>BOND
     1    1    2 1   
     2    1    4 1   
     3    1    5 1   
     4    1    6 1   
     5    2    3 2   
     6    2    7 1   
     7    7    8 1   
     8    7   15 1   
     9    8    9 1   
    10    8   11 1   
    11    8   16 1   
    12    9   10 2   
    13    9   19 1   
    14   11   12 1   
    15   11   17 1   
    16   11   18 1   
    17   12   13 1   
    18   12   14 1   
    19   19   20 1   
    20   19   28 1   
    21   20   21 1   
    22   20   23 1   
    23   20   29 1   
    24   21   22 2   
    25   21   41 1   
    26   23   24 1   
    27   23   30 1   
    28   23   31 1   
    29   24   25 1   
    30   24   32 1   
    31   24   33 1   
    32   25   26 1   
    33   25   34 1   
    34   25   35 1   
    35   26   27 1   
    36   26   36 1   
    37   26   37 1   
    38   27   38 1   
    39   27   39 1   
    40   27   40 1   
    41   41   42 1   
    42   41   49 1   
    43   42   43 1   
    44   42   45 1   
    45   42   50 1   
    46   43   44 2   
    47   43   53 1   
    48   45   46 1   
    49   45   51 1   
    50   45   52 1   
    51   46   47 1   
    52   46   48 1   
    53   53   54 1   
    54   53   57 1   
    55   54   55 1   
    56   54   58 1   
    57   54   59 1   
    58   55   56 2   
    59   55   60 1   
    60   60   61 1   
    61   60   68 1   
    62   61   62 1   
    63   61   64 1   
    64   61   69 1   
    65   62   63 2   
    66   62   74 1   
    67   64   65 1   
    68   64   70 1   
    69   64   71 1   
    70   65   66 1   
    71   65   67 2   
    72   66   72 1   
    73   66   73 1   
    74   74   75 1   
    75   74   78 1   
    76   75   76 1   
    77   75   79 1   
    78   75   80 1   
    79   76   77 2   
    80   76   81 1   
    81   81   82 1   
    82   81   93 1   
    83   82   83 1   
    84   82   85 1   
    85   82   94 1   
    86   83   84 2   
    87   83  102 1   
    88   85   86 1   
    89   85   95 1   
    90   85   96 1   
    91   86   87 ar  
    92   86   88 ar  
    93   87   89 ar  
    94   87   97 1   
    95   88   90 ar  
    96   88   98 1   
    97   89   91 ar  
    98   89   99 1   
    99   90   91 ar  
   100   90  100 1   
   101   91   92 1   
   102   92  101 1   
   103  102  103 1   
   104  102  110 1   
   105  103  104 1   
   106  103  106 1   
   107  103  111 1   
   108  104  105 2   
   109  104  121 1   
   110  106  107 1   
   111  106  108 1   
   112  106  112 1   
   113  107  109 1   
   114  107  113 1   
   115  107  114 1   
   116  108  115 1   
   117  108  116 1   
   118  108  117 1   
   119  109  118 1   
   120  109  119 1   
   121  109  120 1   
   122  121  122 1   
   123  121  127 1   
   124  122  123 1   
   125  122  125 1   
   126  122  128 1   
   127  123  124 2   
   128  123  132 1   
   129  125  126 1   
   130  125  129 1   
   131  125  130 1   
   132  126  131 1   
   133  132  133 1   
   134  132  137 1   
   135  133  134 1   
   136  133  136 1   
   137  133  138 1   
   138  134  135 2   
   139  134  142 1   
   140  136  139 1   
   141  136  140 1   
   142  136  141 1   
   143  142  143 1   
   144  142  147 1   
   145  143  144 1   
   146  143  146 1   
   147  143  148 1   
   148  144  145 2   
   149  144  152 1   
   150  146  149 1   
   151  146  150 1   
   152  146  151 1   
   153  152  153 1   
   154  152  161 1   
   155  153  154 1   
   156  153  156 1   
   157  153  162 1   
   158  154  155 2   
   159  154  167 1   
   160  156  157 1   
   161  156  163 1   
   162  156  164 1   
   163  157  158 1   
   164  157  165 1   
   165  157  166 1   
   166  158  159 1   
   167  158  160 1   
   168  167  168 1   
   169  167  172 1   
   170  168  169 1   
   171  168  170 1   
   172  168  171 1   
   173  174  175 1   
   174  174  176 1   
   175  177  178 1   
   176  177  179 1   
   177  180  181 1   
   178  180  182 1   
   179  183  184 1   
   180  183  185 1   
   181  186  187 1   
   182  186  188 1   
   183  189  190 1   
   184  189  191 1   
@<TRIPOS>SUBSTRUCTURE
     1 MOL         1 TEMP              0 ****  ****    0 ROOT
