@<TRIPOS>MOLECULE
MOL
  181   177     1     0     0
SMALL
resp


@<TRIPOS>ATOM
      1 C1          4.0910   -1.9520    3.6650 c3        1 MOL     -0.349831
      2 C2          5.3110   -1.1880    3.1250 c         1 MOL      0.643011
      3 O1          5.3750    0.0380    3.0810 o         1 MOL     -0.584255
      4 H1          4.3190   -2.3480    4.6540 hc        1 MOL      0.090014
      5 H2          3.2390   -1.2760    3.7330 hc        1 MOL      0.090014
      6 H3          3.8500   -2.7740    2.9920 hc        1 MOL      0.090014
      7 N1          6.3280   -1.9580    2.7580 n         1 MOL     -0.376991
      8 C3          7.6660   -1.4090    2.3750 c3        1 MOL     -0.078729
      9 C4          7.7230   -0.8320    0.9120 c         1 MOL      0.612889
     10 O2          7.5410   -1.5660   -0.0480 o         1 MOL     -0.546992
     11 C5          8.7210   -2.4920    2.5180 c3        1 MOL     -0.224380
     12 C6         10.0890   -1.9660    2.1330 c         1 MOL      0.700033
     13 O3         10.6780   -2.4340    1.1450 o         1 MOL     -0.724539
     14 O4         10.5680   -1.0050    2.7760 o         1 MOL     -0.724539
     15 H4          6.2250   -2.9590    2.8380 hn        1 MOL      0.245704
     16 H5          7.8580   -0.5900    3.0790 h1        1 MOL      0.075343
     17 H6          8.4700   -3.2880    1.8240 hc        1 MOL      0.035380
     18 H7          8.7170   -2.9290    3.5230 hc        1 MOL      0.035380
     19 N2          7.8800    0.4930    0.7770 n         1 MOL     -0.378041
     20 C7          7.7550    1.3230   -0.4490 c3        1 MOL      0.258821
     21 C8          6.3340    1.7810   -0.6430 c         1 MOL      0.547713
     22 O5          5.8080    2.7170   -0.0550 o         1 MOL     -0.542285
     23 C9          8.7200    2.4010   -0.4260 c3        1 MOL     -0.331207
     24 H8          8.1720    0.9860    1.6150 hn        1 MOL      0.251624
     25 H9          8.0070    0.7240   -1.3320 h1        1 MOL      0.013270
     26 H10         9.7390    2.0100   -0.4840 hc        1 MOL      0.080606
     27 H11         8.4820    2.9990   -1.3000 hc        1 MOL      0.080606
     28 H12         8.5590    3.1010    0.4030 hc        1 MOL      0.080606
     29 N3          5.5870    1.0300   -1.4650 n         1 MOL     -0.484501
     30 C10         4.3390    1.5170   -2.1240 c3        1 MOL     -0.063488
     31 C11         4.5560    2.7760   -2.9210 c         1 MOL      0.605999
     32 O6          5.5850    3.0720   -3.5290 o         1 MOL     -0.528563
     33 C12         3.7550    0.4190   -2.9700 c3        1 MOL     -0.054006
     34 C13         3.3210   -0.8900   -2.3390 c         1 MOL      0.749573
     35 O7          2.7700   -1.7500   -3.0320 o         1 MOL     -0.731952
     36 O8          3.4710   -1.1100   -1.1040 o         1 MOL     -0.731952
     37 H13         5.9710    0.1330   -1.7570 hn        1 MOL      0.282842
     38 H14         3.5330    1.6180   -1.3990 h1        1 MOL      0.142849
     39 H15         4.5460    0.1010   -3.6590 hc        1 MOL     -0.018282
     40 H16         2.9250    0.7610   -3.5960 hc        1 MOL     -0.018282
     41 N4          3.4860    3.6450   -2.8590 n         1 MOL     -0.315971
     42 C14         3.4740    5.0170   -3.4230 c3        1 MOL     -0.346538
     43 C15         2.0090    5.5800   -3.6380 c         1 MOL      0.602351
     44 O9          1.7360    6.6040   -4.2310 o         1 MOL     -0.575455
     45 H17         2.6320    3.3300   -2.4140 hn        1 MOL      0.147579
     46 H18         3.8830    5.0150   -4.4270 h1        1 MOL      0.166011
     47 H19         3.9570    5.6850   -2.7000 h1        1 MOL      0.166011
     48 N5          1.0220    4.8130   -3.2370 n         1 MOL     -0.341858
     49 C16        -0.4410    5.1590   -3.3010 c3        1 MOL      0.044364
     50 C17        -0.8390    5.8450   -1.9760 c         1 MOL      0.567110
     51 O10        -0.2770    5.4970   -0.9830 o         1 MOL     -0.533935
     52 C18        -1.1400    3.7970   -3.6380 c3        1 MOL     -0.244224
     53 C19        -0.7800    3.0860   -4.9060 c         1 MOL      0.714635
     54 N6         -0.2170    1.8860   -4.7870 n         1 MOL     -0.880270
     55 O11        -0.9660    3.5500   -6.0140 o         1 MOL     -0.566720
     56 H20         1.2160    4.0130   -2.6480 hn        1 MOL      0.301653
     57 H21        -0.5510    5.8980   -4.0870 h1        1 MOL      0.059171
     58 H22        -2.1720    4.1430   -3.7510 hc        1 MOL      0.069652
     59 H23        -1.0320    3.1220   -2.7850 hc        1 MOL      0.069652
     60 H24         0.0870    1.4910   -3.9120 hn        1 MOL      0.403190
     61 H25         0.0540    1.3570   -5.6000 hn        1 MOL      0.403190
     62 N7         -1.7630    6.7430   -1.9100 n         1 MOL     -0.404164
     63 C20        -2.1490    7.4770   -0.7060 c3        1 MOL     -0.131549
     64 C21        -3.0140    6.5770    0.2730 c         1 MOL      0.604418
     65 O12        -3.8400    5.8160   -0.1650 o         1 MOL     -0.492200
     66 H26        -2.2600    6.9580   -2.7580 hn        1 MOL      0.292069
     67 H27        -2.6410    8.4020   -1.0150 h1        1 MOL      0.092023
     68 H28        -1.2440    7.7380   -0.1580 h1        1 MOL      0.092023
     69 N8         -2.7790    6.8050    1.6060 n         1 MOL     -0.535542
     70 C22        -3.6790    6.1800    2.6340 c3        1 MOL     -0.129803
     71 C23        -3.1990    4.7530    2.9740 c         1 MOL      0.449113
     72 O13        -3.9820    4.1020    3.7270 o         1 MOL     -0.559308
     73 C24        -3.7490    7.0500    3.8930 c3        1 MOL      0.420457
     74 C25        -2.5300    7.0440    4.8520 c3        1 MOL     -0.388226
     75 O14        -3.9910    8.4020    3.3540 oh        1 MOL     -0.626238
     76 H29        -2.1040    7.5010    1.8600 hn        1 MOL      0.297265
     77 H30        -4.7040    6.1490    2.2460 h1        1 MOL      0.160519
     78 H31        -4.6110    6.7880    4.5080 h1        1 MOL      0.051471
     79 H32        -3.1600    8.7090    2.9870 ho        1 MOL      0.358882
     80 H33        -2.5610    6.0740    5.3370 hc        1 MOL      0.104054
     81 H34        -1.5310    7.1800    4.4230 hc        1 MOL      0.104054
     82 H35        -2.6510    7.7030    5.7170 hc        1 MOL      0.104054
     83 N9         -2.0810    4.1750    2.5020 n         1 MOL     -0.231849
     84 C26        -1.6490    2.8670    2.8900 c3        1 MOL     -0.033218
     85 C27        -1.4180    1.9790    1.6540 c         1 MOL      0.414328
     86 O15        -0.8250    2.4310    0.6520 o         1 MOL     -0.495670
     87 C28        -0.4720    2.8640    3.8440 c3        1 MOL      0.271848
     88 C29        -0.7930    3.7040    5.0890 c3        1 MOL     -0.568300
     89 C30         0.0160    1.4600    4.2950 c3        1 MOL     -0.074262
     90 C31        -1.9210    3.2600    6.0560 c3        1 MOL     -0.061001
     91 H36        -1.3160    4.7450    2.1760 hn        1 MOL      0.249312
     92 H37        -2.3620    2.3210    3.4990 h1        1 MOL      0.112228
     93 H38         0.3770    3.4160    3.4440 hc        1 MOL     -0.011583
     94 H39        -0.9660    4.7300    4.7720 hc        1 MOL      0.157846
     95 H40         0.0730    3.5160    5.7240 hc        1 MOL      0.157846
     96 H41         0.5040    0.9200    3.4850 hc        1 MOL      0.030462
     97 H42         0.6430    1.5180    5.1880 hc        1 MOL      0.030462
     98 H43        -0.8830    0.9230    4.5770 hc        1 MOL      0.030462
     99 H44        -1.5300    2.4360    6.6520 hc        1 MOL      0.038028
    100 H45        -2.2220    4.0150    6.7720 hc        1 MOL      0.038028
    101 H46        -2.8290    2.9240    5.5440 hc        1 MOL      0.038028
    102 N10        -1.8170    0.6850    1.6850 n         1 MOL     -0.457426
    103 C32        -1.3750   -0.3670    0.8170 c3        1 MOL      0.439061
    104 C33        -2.5370   -1.0690    0.1840 c         1 MOL      0.355511
    105 O16        -2.5600   -2.2830   -0.2280 o         1 MOL     -0.423238
    106 C34        -0.4150   -1.3740    1.4770 c3        1 MOL     -0.087216
    107 C35         0.4340   -2.3190    0.5740 c         1 MOL      0.842089
    108 O17         1.3030   -3.0320    1.0570 o         1 MOL     -0.803306
    109 O18         0.3460   -2.1950   -0.6510 o         1 MOL     -0.803306
    110 H47        -2.5600    0.4220    2.3210 hn        1 MOL      0.241771
    111 H48        -0.8020    0.1670    0.0580 h1        1 MOL     -0.011983
    112 H49        -1.0190   -2.0450    2.0820 hc        1 MOL     -0.042696
    113 H50         0.2950   -0.8180    2.0870 hc        1 MOL     -0.042696
    114 N11        -3.5850   -0.2320   -0.1150 n         1 MOL     -0.539297
    115 C36        -4.8660   -0.7370   -0.7460 c3        1 MOL      0.288493
    116 C37        -5.3170   -2.0470   -0.0960 c         1 MOL      0.242660
    117 O19        -5.4910   -2.0920    1.1080 o         1 MOL     -0.488811
    118 C38        -5.9420    0.3430   -0.7230 c3        1 MOL     -0.299909
    119 C39        -7.1160   -0.1420   -1.5830 ca        1 MOL      0.108729
    120 C40        -6.9940   -0.0280   -3.0010 ca        1 MOL     -0.222339
    121 C41        -8.1760   -0.7990   -0.9080 ca        1 MOL     -0.222339
    122 C42        -7.9810   -0.7280   -3.8010 ca        1 MOL     -0.027736
    123 C43        -9.1480   -1.3320   -1.7440 ca        1 MOL     -0.027736
    124 C44        -9.0760   -1.2990   -3.1880 ca        1 MOL     -0.234499
    125 H51        -3.4130    0.7470    0.0410 hn        1 MOL      0.290561
    126 H52        -4.5970   -0.8550   -1.8020 h1        1 MOL      0.033897
    127 H53        -5.5300    1.2480   -1.1630 hc        1 MOL      0.124597
    128 H54        -6.3850    0.5350    0.2540 hc        1 MOL      0.124597
    129 H55        -6.2210    0.5380   -3.4980 ha        1 MOL      0.163771
    130 H56        -8.2700   -0.8550    0.1640 ha        1 MOL      0.163771
    131 H57        -7.8990   -0.6280   -4.8810 ha        1 MOL      0.094893
    132 H58       -10.0150   -1.7880   -1.2980 ha        1 MOL      0.094893
    133 H59        -9.8570   -1.7290   -3.8020 ha        1 MOL      0.132071
    134 N12        -5.5670   -3.1470   -0.8050 n         1 MOL     -0.085231
    135 C45        -6.2780   -4.3630   -0.2540 c3        1 MOL      0.216610
    136 C46        -5.3900   -5.0950    0.7140 c         1 MOL      0.140337
    137 O20        -5.8840   -5.6000    1.7060 o         1 MOL     -0.495265
    138 C47        -6.6700   -5.2430   -1.4220 c3        1 MOL      0.001132
    139 C48        -6.8050   -4.2250   -2.5350 c3        1 MOL     -0.000295
    140 C49        -5.6810   -3.2560   -2.2420 c3        1 MOL     -0.036296
    141 H60        -7.2220   -4.1090    0.2380 h1        1 MOL      0.047743
    142 H61        -5.8810   -5.9690   -1.6320 hc        1 MOL      0.003412
    143 H62        -7.6710   -5.6670   -1.3500 hc        1 MOL      0.003412
    144 H63        -6.6510   -4.6280   -3.5390 hc        1 MOL      0.012381
    145 H64        -7.7820   -3.7480   -2.4410 hc        1 MOL      0.012381
    146 H65        -4.7640   -3.6660   -2.6650 h1        1 MOL      0.032774
    147 H66        -5.9390   -2.3220   -2.7250 h1        1 MOL      0.032774
    148 N13        -4.0670   -5.1020    0.6050 n         1 MOL     -0.009862
    149 C50        -3.1370   -5.7810    1.5320 c3        1 MOL     -0.134061
    150 C51        -3.2770   -5.2240    2.9470 c         1 MOL      0.348790
    151 O21        -3.1420   -6.0370    3.8790 o         1 MOL     -0.528902
    152 C52        -1.7420   -5.6810    1.0000 c3        1 MOL     -0.049521
    153 C53        -1.4010   -6.6360   -0.1170 c3        1 MOL     -0.051964
    154 C54        -0.0420   -6.3640   -0.8460 c         1 MOL      0.699991
    155 O22         0.2190   -5.2070   -1.2550 o         1 MOL     -0.734094
    156 O23         0.8070   -7.2900   -0.8820 o         1 MOL     -0.734094
    157 H67        -3.6740   -4.5870   -0.1710 hn        1 MOL      0.142015
    158 H68        -3.3770   -6.8510    1.5210 h1        1 MOL      0.132246
    159 H69        -0.9900   -5.8990    1.7560 hc        1 MOL      0.058818
    160 H70        -1.5330   -4.6700    0.6450 hc        1 MOL      0.058818
    161 H71        -2.2260   -6.9630   -0.7510 hc        1 MOL     -0.005500
    162 H72        -1.2690   -7.5720    0.4420 hc        1 MOL     -0.005500
    163 N14        -3.6620   -3.9430    3.1230 n         1 MOL     -0.027595
    164 C55        -3.8470   -3.3040    4.3910 c3        1 MOL     -0.158654
    165 H73        -3.4940   -3.9630    5.1850 h1        1 MOL      0.059841
    166 H74        -3.2830   -2.3710    4.4140 h1        1 MOL      0.059841
    167 H75        -4.9060   -3.0930    4.5400 h1        1 MOL      0.059841
    168 H76        -3.8010   -3.4100    2.2760 hn        1 MOL      0.192149
    169 Ca1         2.3790   -3.7020   -1.2270 Ca        1 MOL      1.808374
    170 O24         1.6630   -4.8850   -3.7080 oh        1 MOL     -0.848014
    171 H77         1.0000   -5.5780   -3.6650 ho        1 MOL      0.404117
    172 H78         2.2120   -5.1280   -4.4610 ho        1 MOL      0.404117
    173 O25         4.7280   -3.3490    0.1400 oh        1 MOL     -0.848014
    174 H79         5.2500   -3.8350    0.7810 ho        1 MOL      0.404117
    175 H80         5.2490   -2.5750   -0.0640 ho        1 MOL      0.404117
    176 O26         3.0890   -6.1190   -0.9180 oh        1 MOL     -0.848014
    177 H81         3.6570   -6.8040   -1.2730 ho        1 MOL      0.404117
    178 H82         2.2240   -6.5230   -0.8840 ho        1 MOL      0.404117
    179 O27         4.6850   -4.4440   -2.7900 oh        1 MOL     -0.848014
    180 H83         4.7780   -4.6600   -3.7200 ho        1 MOL      0.404117
    181 H84         5.4590   -3.9190   -2.5820 ho        1 MOL      0.404117
@<TRIPOS>BOND
     1    1    2 1   
     2    1    4 1   
     3    1    5 1   
     4    1    6 1   
     5    2    3 2   
     6    2    7 1   
     7    7    8 1   
     8    7   15 1   
     9    8    9 1   
    10    8   11 1   
    11    8   16 1   
    12    9   10 2   
    13    9   19 1   
    14   11   12 1   
    15   11   17 1   
    16   11   18 1   
    17   12   13 1   
    18   12   14 1   
    19   19   20 1   
    20   19   24 1   
    21   20   21 1   
    22   20   23 1   
    23   20   25 1   
    24   21   22 2   
    25   21   29 1   
    26   23   26 1   
    27   23   27 1   
    28   23   28 1   
    29   29   30 1   
    30   29   37 1   
    31   30   31 1   
    32   30   33 1   
    33   30   38 1   
    34   31   32 2   
    35   31   41 1   
    36   33   34 1   
    37   33   39 1   
    38   33   40 1   
    39   34   35 1   
    40   34   36 1   
    41   41   42 1   
    42   41   45 1   
    43   42   43 1   
    44   42   46 1   
    45   42   47 1   
    46   43   44 2   
    47   43   48 1   
    48   48   49 1   
    49   48   56 1   
    50   49   50 1   
    51   49   52 1   
    52   49   57 1   
    53   50   51 2   
    54   50   62 1   
    55   52   53 1   
    56   52   58 1   
    57   52   59 1   
    58   53   54 1   
    59   53   55 2   
    60   54   60 1   
    61   54   61 1   
    62   62   63 1   
    63   62   66 1   
    64   63   64 1   
    65   63   67 1   
    66   63   68 1   
    67   64   65 2   
    68   64   69 1   
    69   69   70 1   
    70   69   76 1   
    71   70   71 1   
    72   70   73 1   
    73   70   77 1   
    74   71   72 2   
    75   71   83 1   
    76   73   74 1   
    77   73   75 1   
    78   73   78 1   
    79   74   80 1   
    80   74   81 1   
    81   74   82 1   
    82   75   79 1   
    83   83   84 1   
    84   83   91 1   
    85   84   85 1   
    86   84   87 1   
    87   84   92 1   
    88   85   86 2   
    89   85  102 1   
    90   87   88 1   
    91   87   89 1   
    92   87   93 1   
    93   88   90 1   
    94   88   94 1   
    95   88   95 1   
    96   89   96 1   
    97   89   97 1   
    98   89   98 1   
    99   90   99 1   
   100   90  100 1   
   101   90  101 1   
   102  102  103 1   
   103  102  110 1   
   104  103  104 1   
   105  103  106 1   
   106  103  111 1   
   107  104  105 2   
   108  104  114 1   
   109  106  107 1   
   110  106  112 1   
   111  106  113 1   
   112  107  108 1   
   113  107  109 1   
   114  114  115 1   
   115  114  125 1   
   116  115  116 1   
   117  115  118 1   
   118  115  126 1   
   119  116  117 2   
   120  116  134 1   
   121  118  119 1   
   122  118  127 1   
   123  118  128 1   
   124  119  120 ar  
   125  119  121 ar  
   126  120  122 ar  
   127  120  129 1   
   128  121  123 ar  
   129  121  130 1   
   130  122  124 ar  
   131  122  131 1   
   132  123  124 ar  
   133  123  132 1   
   134  124  133 1   
   135  134  135 1   
   136  134  140 1   
   137  135  136 1   
   138  135  138 1   
   139  135  141 1   
   140  136  137 2   
   141  136  148 1   
   142  138  139 1   
   143  138  142 1   
   144  138  143 1   
   145  139  140 1   
   146  139  144 1   
   147  139  145 1   
   148  140  146 1   
   149  140  147 1   
   150  148  149 1   
   151  148  157 1   
   152  149  150 1   
   153  149  152 1   
   154  149  158 1   
   155  150  151 2   
   156  150  163 1   
   157  152  153 1   
   158  152  159 1   
   159  152  160 1   
   160  153  154 1   
   161  153  161 1   
   162  153  162 1   
   163  154  155 1   
   164  154  156 1   
   165  163  164 1   
   166  163  168 1   
   167  164  165 1   
   168  164  166 1   
   169  164  167 1   
   170  170  171 1   
   171  170  172 1   
   172  173  174 1   
   173  173  175 1   
   174  176  177 1   
   175  176  178 1   
   176  179  180 1   
   177  179  181 1   
@<TRIPOS>SUBSTRUCTURE
     1 MOL         1 TEMP              0 ****  ****    0 ROOT
