@<TRIPOS>MOLECULE
MOL
  197   188     1     0     0
SMALL
resp


@<TRIPOS>ATOM
      1 C1          3.4310   -0.6630   -3.9780 c3        1 MOL     -0.314468
      2 C2          4.4010   -0.9270   -2.8100 c         1 MOL      0.657581
      3 O1          4.0020   -0.6360   -1.6740 o         1 MOL     -0.540949
      4 H1          4.0020   -0.4300   -4.8770 hc        1 MOL      0.083487
      5 H2          2.8240   -1.5510   -4.1550 hc        1 MOL      0.083487
      6 H3          2.7830    0.1780   -3.7310 hc        1 MOL      0.083487
      7 N1          5.5520   -1.5510   -3.0360 n         1 MOL     -0.705101
      8 C3          6.5830   -2.1040   -2.1440 c3        1 MOL      0.136713
      9 C4          7.1010   -1.1830   -1.0360 c         1 MOL      0.482529
     10 O2          7.5560   -1.6920   -0.0070 o         1 MOL     -0.534954
     11 C5          6.1470   -3.5190   -1.6160 c3        1 MOL     -0.096711
     12 C6          5.6090   -4.4630   -2.6960 c         1 MOL      0.643076
     13 O3          4.9930   -4.1180   -3.7030 o         1 MOL     -0.644607
     14 O4          5.7110   -5.7070   -2.4840 o         1 MOL     -0.644607
     15 H4          5.5380   -2.1290   -3.8630 hn        1 MOL      0.335433
     16 H5          7.5020   -2.2090   -2.7210 h1        1 MOL      0.060949
     17 H6          5.3560   -3.4060   -0.8810 hc        1 MOL      0.018524
     18 H7          7.0270   -4.0330   -1.2220 hc        1 MOL      0.018524
     19 N2          7.0220    0.1470   -1.1730 n         1 MOL     -0.298097
     20 C7          7.3350    1.1760   -0.2400 c3        1 MOL      0.104221
     21 C8          6.2050    2.1990    0.1570 c         1 MOL      0.461679
     22 O5          6.3620    3.0680    0.9970 o         1 MOL     -0.560949
     23 C9          8.5290    2.0040   -0.7390 c3        1 MOL     -0.009614
     24 C10         9.8570    1.3060   -1.0260 c3        1 MOL     -0.081897
     25 C11        10.5980    0.9160    0.2790 c3        1 MOL      0.048524
     26 C12        11.2880    2.0380    1.0510 c3        1 MOL      0.009986
     27 N3         11.9040    1.6170    2.2920 n4        1 MOL     -0.330973
     28 H8          6.7930    0.4320   -2.1150 hn        1 MOL      0.229390
     29 H9          7.6390    0.7750    0.7360 h1        1 MOL      0.071230
     30 H10         8.6730    2.9230   -0.1570 hc        1 MOL      0.001389
     31 H11         8.1160    2.2560   -1.7110 hc        1 MOL      0.001389
     32 H12        10.5710    1.8900   -1.6250 hc        1 MOL      0.029098
     33 H13         9.6170    0.3730   -1.5420 hc        1 MOL      0.029098
     34 H14        11.2810    0.1030    0.0340 hc        1 MOL      0.024414
     35 H15         9.9520    0.3850    0.9880 hc        1 MOL      0.024414
     36 H16        10.5360    2.8130    1.1850 hx        1 MOL      0.078505
     37 H17        12.0470    2.5060    0.4130 hx        1 MOL      0.078505
     38 H18        11.3230    1.0110    2.8530 hn        1 MOL      0.290660
     39 H19        12.7740    1.1340    2.1380 hn        1 MOL      0.290660
     40 H20        12.1070    2.4500    2.8120 hn        1 MOL      0.290660
     41 N4          5.0580    2.0740   -0.5020 n         1 MOL     -0.405024
     42 C13         3.7510    2.7500   -0.1420 c3        1 MOL     -0.147179
     43 C14         3.3220    2.5490    1.3460 c         1 MOL      0.682824
     44 O6          3.6520    1.4570    1.8450 o         1 MOL     -0.432722
     45 C15         2.6630    2.1720   -1.0500 c3        1 MOL     -0.263658
     46 C16         1.3680    2.9010   -0.8240 c         1 MOL      0.949272
     47 O7          1.0050    3.9110   -1.4340 o         1 MOL     -0.852551
     48 O8          0.6770    2.5480    0.2000 o         1 MOL     -0.852551
     49 H21         5.1030    1.2990   -1.1500 hn        1 MOL      0.262724
     50 H22         4.0030    3.8110   -0.1920 h1        1 MOL      0.120915
     51 H23         2.4490    1.1260   -0.8170 hc        1 MOL      0.105659
     52 H24         2.9090    2.2310   -2.1120 hc        1 MOL      0.105659
     53 N5          2.6950    3.5600    1.9400 n         1 MOL     -0.514419
     54 C17         2.3930    3.7080    3.3680 c3        1 MOL     -0.242387
     55 C18         1.4780    2.5550    3.9040 c         1 MOL      0.519270
     56 O9          1.4930    2.3330    5.1370 o         1 MOL     -0.544292
     57 H25         2.4350    4.3440    1.3590 hn        1 MOL      0.316269
     58 H26         1.7400    4.5410    3.6220 h1        1 MOL      0.133633
     59 H27         3.3550    3.7800    3.8820 h1        1 MOL      0.133633
     60 N6          0.7590    1.7710    3.0690 n         1 MOL     -0.181643
     61 C19         0.0430    0.4990    3.3900 c3        1 MOL     -0.289753
     62 C20         0.9120   -0.7350    3.6160 c         1 MOL      0.481144
     63 O10         0.3900   -1.7390    4.0370 o         1 MOL     -0.484416
     64 C21        -1.0440    0.2090    2.3350 c3        1 MOL     -0.176428
     65 C22        -2.2140    1.1700    2.2710 c         1 MOL      0.701980
     66 N7         -2.5770    1.5800    1.1140 n         1 MOL     -1.003916
     67 O11        -2.7380    1.4520    3.2150 o         1 MOL     -0.578991
     68 H28         0.8870    1.9430    2.0840 hn        1 MOL      0.195975
     69 H29        -0.3790    0.7570    4.3620 h1        1 MOL      0.164238
     70 H30        -1.4840   -0.7710    2.5020 hc        1 MOL      0.191860
     71 H31        -0.5700    0.1100    1.3580 hc        1 MOL      0.191860
     72 H32        -2.1000    1.3230    0.2640 hn        1 MOL      0.425353
     73 H33        -3.4210    2.1330    1.1300 hn        1 MOL      0.425353
     74 N8          2.2190   -0.7460    3.3430 n         1 MOL     -0.096306
     75 C23         3.1030   -1.8940    3.5170 c3        1 MOL     -0.369370
     76 C24         2.8030   -3.0490    2.6000 c         1 MOL      0.563431
     77 O12         2.8640   -4.2280    2.9810 o         1 MOL     -0.553191
     78 H34         2.5370    0.1150    2.9290 hn        1 MOL      0.116387
     79 H35         3.0210   -2.1930    4.5550 h1        1 MOL      0.161393
     80 H36         4.0840   -1.4780    3.2970 h1        1 MOL      0.161393
     81 N9          2.2560   -2.8580    1.4130 n         1 MOL     -0.278612
     82 C25         1.5310   -3.7740    0.5390 c3        1 MOL      0.002746
     83 C26         0.3580   -3.0030   -0.0420 c         1 MOL      0.477419
     84 O13         0.2880   -1.7520    0.0910 o         1 MOL     -0.524209
     85 C27         2.5490   -4.3550   -0.4500 c3        1 MOL     -0.604035
     86 C28         2.1560   -5.6440   -1.1060 ca        1 MOL      0.236551
     87 C29         2.1050   -6.7810   -0.3310 ca        1 MOL     -0.126264
     88 C30         1.6670   -5.6370   -2.4680 ca        1 MOL     -0.126264
     89 C31         1.6430   -7.9840   -0.8970 ca        1 MOL     -0.235644
     90 C32         1.3790   -6.8690   -3.0730 ca        1 MOL     -0.235644
     91 C33         1.3000   -8.0180   -2.2780 ca        1 MOL      0.308545
     92 O14         0.9440   -9.2430   -2.7920 oh        1 MOL     -0.536239
     93 H37         2.2610   -1.8950    1.0850 hn        1 MOL      0.226625
     94 H38         1.1440   -4.5740    1.1720 h1        1 MOL      0.083079
     95 H39         3.4200   -4.5590    0.1720 hc        1 MOL      0.249446
     96 H40         2.8350   -3.5700   -1.1620 hc        1 MOL      0.249446
     97 H41         2.2480   -6.6660    0.7370 ha        1 MOL      0.133484
     98 H42         1.5190   -4.7160   -2.9950 ha        1 MOL      0.133484
     99 H43         1.6610   -8.8500   -0.2510 ha        1 MOL      0.138959
    100 H44         1.0670   -6.8180   -4.1110 ha        1 MOL      0.138959
    101 H45         0.7090   -9.2380   -3.7220 ho        1 MOL      0.390665
    102 N10        -0.6410   -3.6920   -0.5660 n         1 MOL     -0.281589
    103 C34        -1.9620   -3.1430   -0.8960 c3        1 MOL      0.018210
    104 C35        -2.7840   -2.7540    0.3450 c         1 MOL      0.055631
    105 O15        -3.4400   -1.7390    0.3440 o         1 MOL     -0.396039
    106 C36        -2.6990   -4.1500   -1.8260 c3        1 MOL      0.151657
    107 C37        -1.9220   -4.4920   -3.1190 c3        1 MOL      0.018996
    108 C38        -4.1070   -3.6300   -2.1570 c3        1 MOL     -0.215155
    109 C39        -1.7500   -3.3050   -4.0740 c3        1 MOL     -0.092566
    110 H46        -0.5440   -4.6970   -0.6050 hn        1 MOL      0.170624
    111 H47        -1.7970   -2.2670   -1.5240 h1        1 MOL      0.134484
    112 H48        -2.9680   -5.0710   -1.3000 hc        1 MOL     -0.013068
    113 H49        -2.6200   -5.1170   -3.6790 hc        1 MOL     -0.035970
    114 H50        -1.0310   -5.0740   -2.8450 hc        1 MOL     -0.035970
    115 H51        -4.7640   -3.6900   -1.2880 hc        1 MOL      0.070702
    116 H52        -4.1020   -2.5980   -2.5330 hc        1 MOL      0.070702
    117 H53        -4.6280   -4.3370   -2.8070 hc        1 MOL      0.070702
    118 H54        -1.2400   -2.4850   -3.5630 hc        1 MOL      0.036511
    119 H55        -1.1680   -3.6320   -4.9350 hc        1 MOL      0.036511
    120 H56        -2.7550   -2.9730   -4.3600 hc        1 MOL      0.036511
    121 N11        -2.6240   -3.4460    1.4490 n         1 MOL     -0.162054
    122 C40        -3.2560   -3.1970    2.7070 c3        1 MOL     -0.018651
    123 C41        -4.7910   -3.4780    2.7730 c         1 MOL      0.387486
    124 O16        -5.3910   -3.1040    3.8110 o         1 MOL     -0.491834
    125 C42        -2.5390   -3.9200    3.8730 c3        1 MOL      0.049221
    126 O17        -1.1250   -3.9850    3.7520 oh        1 MOL     -0.541119
    127 H57        -1.9320   -4.1730    1.3410 hn        1 MOL      0.249642
    128 H58        -3.1980   -2.1290    2.9220 h1        1 MOL      0.124156
    129 H59        -2.9660   -4.9170    3.9380 h1        1 MOL      0.069573
    130 H60        -2.7760   -3.3250    4.7680 h1        1 MOL      0.069573
    131 H61        -0.8110   -3.1030    3.9810 ho        1 MOL      0.378383
    132 N12        -5.4060   -3.9410    1.6660 n         1 MOL     -0.403820
    133 C43        -6.8430   -3.9450    1.2940 c3        1 MOL      0.366170
    134 C44        -7.5850   -2.5530    1.5290 c         1 MOL      0.451655
    135 O18        -8.7700   -2.5610    1.8670 o         1 MOL     -0.539595
    136 C45        -7.5570   -5.1850    1.8350 c3        1 MOL     -0.219351
    137 H62        -4.8650   -4.2930    0.8890 hn        1 MOL      0.238332
    138 H63        -6.8660   -4.0470    0.2090 h1        1 MOL     -0.011580
    139 H64        -7.0000   -6.0460    1.4680 hc        1 MOL      0.049964
    140 H65        -7.6560   -5.2250    2.9230 hc        1 MOL      0.049964
    141 H66        -8.5480   -5.1730    1.3800 hc        1 MOL      0.049964
    142 N13        -6.8260   -1.5210    1.3230 n         1 MOL     -0.474562
    143 C46        -7.2390   -0.1140    1.4580 c3        1 MOL      0.461445
    144 C47        -7.3910    0.5610    0.0890 c         1 MOL      0.323990
    145 O19        -6.6880    0.2650   -0.8710 o         1 MOL     -0.466217
    146 C48        -6.1480    0.5860    2.3340 c3        1 MOL     -0.277802
    147 H67        -5.8280   -1.6020    1.1420 hn        1 MOL      0.173772
    148 H68        -8.2070   -0.0770    1.9680 h1        1 MOL     -0.046560
    149 H69        -6.5250    1.5790    2.5410 hc        1 MOL      0.073707
    150 H70        -6.1000    0.0840    3.3040 hc        1 MOL      0.073707
    151 H71        -5.1590    0.5840    1.8830 hc        1 MOL      0.073707
    152 N14        -8.2640    1.5550    0.1240 n         1 MOL     -0.407044
    153 C49        -8.5850    2.3670   -1.0400 c3        1 MOL      0.043917
    154 C50        -8.9630    1.7330   -2.3900 c         1 MOL      0.386147
    155 O20        -8.7740    2.3360   -3.4560 o         1 MOL     -0.469194
    156 C51        -7.7400    3.6330   -1.1850 c3        1 MOL      0.456371
    157 C52        -6.2870    3.3430   -1.5110 c3        1 MOL     -0.023290
    158 C53        -5.7070    4.5340   -2.3030 c         1 MOL      0.595589
    159 O21        -4.6070    4.8700   -1.8860 o         1 MOL     -0.690109
    160 O22        -6.1580    5.0190   -3.3780 o         1 MOL     -0.690109
    161 H72        -8.8280    1.6750    0.9520 hn        1 MOL      0.281906
    162 H73        -9.5580    2.7600   -0.7310 h1        1 MOL      0.018242
    163 H74        -7.7110    4.1120   -0.1970 hc        1 MOL     -0.150910
    164 H75        -8.2700    4.3770   -1.7870 hc        1 MOL     -0.150910
    165 H76        -6.1910    2.4080   -2.0570 hc        1 MOL     -0.022493
    166 H77        -5.6570    3.2020   -0.6300 hc        1 MOL     -0.022493
    167 N15        -9.6090    0.5960   -2.3960 n         1 MOL     -0.331869
    168 C54        -9.5830   -0.3060   -3.5590 c3        1 MOL     -0.035954
    169 H78        -9.0960   -1.2420   -3.2830 h1        1 MOL      0.063115
    170 H79       -10.6040   -0.5100   -3.8840 h1        1 MOL      0.063115
    171 H80        -9.0300    0.1640   -4.3720 h1        1 MOL      0.063115
    172 H81        -9.8550    0.1470   -1.5330 hn        1 MOL      0.242708
    173 Ca1         0.1580    6.2750   -0.7140 Ca        1 MOL      1.812758
    174 O23         2.7300    6.0020    0.0430 oh        1 MOL     -0.816951
    175 H82         2.8890    6.4040    0.9020 ho        1 MOL      0.407015
    176 H83         3.6000    5.7420   -0.2560 ho        1 MOL      0.407015
    177 O24        -2.1490    7.2790    0.0460 oh        1 MOL     -0.816951
    178 H84        -2.8520    6.6740   -0.1890 ho        1 MOL      0.407015
    179 H85        -2.6040    8.0420    0.3970 ho        1 MOL      0.407015
    180 O25         0.4740    6.8420    1.7820 oh        1 MOL     -0.816951
    181 H86         1.0310    7.2400    2.4490 ho        1 MOL      0.407015
    182 H87        -0.0180    6.1610    2.2440 ho        1 MOL      0.407015
    183 O26         1.4530    6.0100   -3.4130 oh        1 MOL     -0.816951
    184 H88         1.0090    5.2110   -3.6980 ho        1 MOL      0.407015
    185 H89         1.8680    6.3400   -4.2100 ho        1 MOL      0.407015
    186 O27         1.4070    8.6620   -0.7730 oh        1 MOL     -0.816951
    187 H90         2.0920    8.8950   -1.3940 ho        1 MOL      0.407015
    188 H91         1.2430    9.4600   -0.2710 ho        1 MOL      0.407015
    189 O28        -0.8440    4.6010    1.1800 oh        1 MOL     -0.816951
    190 H92        -1.7380    4.4470    1.4820 ho        1 MOL      0.407015
    191 H93        -0.5540    3.7460    0.8550 ho        1 MOL      0.407015
    192 O29        -1.8780    4.9220   -1.9990 oh        1 MOL     -0.816951
    193 H94        -1.8500    4.0100   -2.2730 ho        1 MOL      0.407015
    194 H95        -2.8120    5.1110   -1.9020 ho        1 MOL      0.407015
    195 O30        -0.8690    7.9770   -2.7280 oh        1 MOL     -0.816951
    196 H96        -1.2490    8.0170   -3.6090 ho        1 MOL      0.407015
    197 H97        -0.8950    8.8710   -2.4060 ho        1 MOL      0.407015
@<TRIPOS>BOND
     1    1    2 1   
     2    1    4 1   
     3    1    5 1   
     4    1    6 1   
     5    2    3 2   
     6    2    7 1   
     7    7    8 1   
     8    7   15 1   
     9    8    9 1   
    10    8   11 1   
    11    8   16 1   
    12    9   10 2   
    13    9   19 1   
    14   11   12 1   
    15   11   17 1   
    16   11   18 1   
    17   12   13 1   
    18   12   14 1   
    19   19   20 1   
    20   19   28 1   
    21   20   21 1   
    22   20   23 1   
    23   20   29 1   
    24   21   22 2   
    25   21   41 1   
    26   23   24 1   
    27   23   30 1   
    28   23   31 1   
    29   24   25 1   
    30   24   32 1   
    31   24   33 1   
    32   25   26 1   
    33   25   34 1   
    34   25   35 1   
    35   26   27 1   
    36   26   36 1   
    37   26   37 1   
    38   27   38 1   
    39   27   39 1   
    40   27   40 1   
    41   41   42 1   
    42   41   49 1   
    43   42   43 1   
    44   42   45 1   
    45   42   50 1   
    46   43   44 2   
    47   43   53 1   
    48   45   46 1   
    49   45   51 1   
    50   45   52 1   
    51   46   47 1   
    52   46   48 1   
    53   53   54 1   
    54   53   57 1   
    55   54   55 1   
    56   54   58 1   
    57   54   59 1   
    58   55   56 2   
    59   55   60 1   
    60   60   61 1   
    61   60   68 1   
    62   61   62 1   
    63   61   64 1   
    64   61   69 1   
    65   62   63 2   
    66   62   74 1   
    67   64   65 1   
    68   64   70 1   
    69   64   71 1   
    70   65   66 1   
    71   65   67 2   
    72   66   72 1   
    73   66   73 1   
    74   74   75 1   
    75   74   78 1   
    76   75   76 1   
    77   75   79 1   
    78   75   80 1   
    79   76   77 2   
    80   76   81 1   
    81   81   82 1   
    82   81   93 1   
    83   82   83 1   
    84   82   85 1   
    85   82   94 1   
    86   83   84 2   
    87   83  102 1   
    88   85   86 1   
    89   85   95 1   
    90   85   96 1   
    91   86   87 ar  
    92   86   88 ar  
    93   87   89 ar  
    94   87   97 1   
    95   88   90 ar  
    96   88   98 1   
    97   89   91 ar  
    98   89   99 1   
    99   90   91 ar  
   100   90  100 1   
   101   91   92 1   
   102   92  101 1   
   103  102  103 1   
   104  102  110 1   
   105  103  104 1   
   106  103  106 1   
   107  103  111 1   
   108  104  105 2   
   109  104  121 1   
   110  106  107 1   
   111  106  108 1   
   112  106  112 1   
   113  107  109 1   
   114  107  113 1   
   115  107  114 1   
   116  108  115 1   
   117  108  116 1   
   118  108  117 1   
   119  109  118 1   
   120  109  119 1   
   121  109  120 1   
   122  121  122 1   
   123  121  127 1   
   124  122  123 1   
   125  122  125 1   
   126  122  128 1   
   127  123  124 2   
   128  123  132 1   
   129  125  126 1   
   130  125  129 1   
   131  125  130 1   
   132  126  131 1   
   133  132  133 1   
   134  132  137 1   
   135  133  134 1   
   136  133  136 1   
   137  133  138 1   
   138  134  135 2   
   139  134  142 1   
   140  136  139 1   
   141  136  140 1   
   142  136  141 1   
   143  142  143 1   
   144  142  147 1   
   145  143  144 1   
   146  143  146 1   
   147  143  148 1   
   148  144  145 2   
   149  144  152 1   
   150  146  149 1   
   151  146  150 1   
   152  146  151 1   
   153  152  153 1   
   154  152  161 1   
   155  153  154 1   
   156  153  156 1   
   157  153  162 1   
   158  154  155 2   
   159  154  167 1   
   160  156  157 1   
   161  156  163 1   
   162  156  164 1   
   163  157  158 1   
   164  157  165 1   
   165  157  166 1   
   166  158  159 1   
   167  158  160 1   
   168  167  168 1   
   169  167  172 1   
   170  168  169 1   
   171  168  170 1   
   172  168  171 1   
   173  174  175 1   
   174  174  176 1   
   175  177  178 1   
   176  177  179 1   
   177  180  181 1   
   178  180  182 1   
   179  183  184 1   
   180  183  185 1   
   181  186  187 1   
   182  186  188 1   
   183  189  190 1   
   184  189  191 1   
   185  192  193 1   
   186  192  194 1   
   187  195  196 1   
   188  195  197 1   
@<TRIPOS>SUBSTRUCTURE
     1 MOL         1 TEMP              0 ****  ****    0 ROOT
