@<TRIPOS>MOLECULE
MOL
  178   175     1     0     0
SMALL
resp


@<TRIPOS>ATOM
      1 C1          1.8170    6.3750   -1.7900 c3        1 MOL     -0.442038
      2 C2          3.2470    6.5400   -1.2140 c         1 MOL      0.684119
      3 O1          3.5570    7.2700   -0.2720 o         1 MOL     -0.562014
      4 H1          1.8770    6.1820   -2.8610 hc        1 MOL      0.110549
      5 H2          1.3210    5.5370   -1.2990 hc        1 MOL      0.110549
      6 H3          1.2470    7.2880   -1.6170 hc        1 MOL      0.110549
      7 N1          4.1450    5.7690   -1.8780 n         1 MOL     -0.623258
      8 C3          5.4580    5.4920   -1.3390 c3        1 MOL      0.260347
      9 C4          5.6290    4.2350   -0.5090 c         1 MOL      0.487451
     10 O2          6.2680    3.2120   -0.9240 o         1 MOL     -0.501796
     11 C5          6.5230    5.5760   -2.4480 c3        1 MOL     -0.157799
     12 C6          7.9530    5.5850   -1.8910 c         1 MOL      0.696809
     13 O3          8.9060    5.3580   -2.6930 o         1 MOL     -0.728338
     14 O4          8.1090    5.8830   -0.6690 o         1 MOL     -0.728338
     15 H4          3.8480    5.3930   -2.7640 hn        1 MOL      0.310846
     16 H5          5.5930    6.3510   -0.6810 h1        1 MOL      0.042175
     17 H6          6.4150    6.4330   -3.0970 hc        1 MOL     -0.003389
     18 H7          6.4520    4.7150   -3.1080 hc        1 MOL     -0.003389
     19 N2          5.0240    4.2620    0.6930 n         1 MOL     -0.667015
     20 C7          5.1280    3.3040    1.8080 c3        1 MOL      0.741530
     21 C8          3.7190    2.9880    2.3860 c         1 MOL      0.226821
     22 O5          2.7970    3.8400    2.2620 o         1 MOL     -0.547399
     23 C9          6.1150    3.8070    2.8730 c3        1 MOL     -0.547140
     24 H8          4.5750    5.1360    0.9320 hn        1 MOL      0.298010
     25 H9          5.4870    2.3590    1.4080 h1        1 MOL     -0.098477
     26 H10         6.1600    3.1150    3.7180 hc        1 MOL      0.130998
     27 H11         7.0610    3.9580    2.3480 hc        1 MOL      0.130998
     28 H12         5.7550    4.7260    3.3270 hc        1 MOL      0.130998
     29 N3          3.5370    1.8900    3.0310 n         1 MOL     -0.208802
     30 C10         4.4110    0.7410    3.4220 c3        1 MOL      0.007344
     31 C11         4.4140   -0.3710    2.3510 c         1 MOL      0.625616
     32 O6          3.5290   -0.5210    1.5880 o         1 MOL     -0.510365
     33 C12         3.9570    0.2390    4.8190 c3        1 MOL     -0.350973
     34 C13         2.5170   -0.2520    4.9350 c         1 MOL      0.737049
     35 O7          2.0660   -0.4860    6.0370 o         1 MOL     -0.681149
     36 O8          1.7890   -0.4070    3.9520 o         1 MOL     -0.681149
     37 H13         2.5960    1.8620    3.4080 hn        1 MOL      0.240266
     38 H14         5.4360    1.0680    3.6350 h1        1 MOL      0.031950
     39 H15         4.0120    1.1290    5.4470 hc        1 MOL      0.087961
     40 H16         4.6910   -0.5300    5.0510 hc        1 MOL      0.087961
     41 N4          5.4960   -1.1780    2.3750 n         1 MOL     -0.614947
     42 C14         5.9140   -2.0820    1.2470 c3        1 MOL      0.121515
     43 C15         6.7800   -1.3920    0.1210 c         1 MOL      0.474252
     44 O9          7.1880   -0.2310    0.2740 o         1 MOL     -0.471779
     45 H17         6.2040   -0.9390    3.0460 hn        1 MOL      0.341939
     46 H18         5.1210   -2.6040    0.7140 h1        1 MOL      0.053169
     47 H19         6.4340   -2.9320    1.6930 h1        1 MOL      0.053169
     48 N5          7.0670   -1.9430   -1.0850 n         1 MOL     -0.540396
     49 C16         6.4270   -3.1780   -1.5960 c3        1 MOL      0.272743
     50 C17         5.1870   -2.9470   -2.4570 c         1 MOL      0.541344
     51 O10         4.7580   -1.8210   -2.6780 o         1 MOL     -0.494320
     52 C18         7.4220   -4.0450   -2.2950 c3        1 MOL     -0.448782
     53 C19         8.6190   -4.3960   -1.3990 c         1 MOL      0.782834
     54 N6          9.7400   -3.7260   -1.4270 n         1 MOL     -0.865471
     55 O11         8.4640   -5.2160   -0.5280 o         1 MOL     -0.579020
     56 H20         7.6930   -1.4160   -1.6700 hn        1 MOL      0.342197
     57 H21         6.0130   -3.6910   -0.7220 h1        1 MOL     -0.006849
     58 H22         7.7990   -3.6080   -3.2130 hc        1 MOL      0.098309
     59 H23         6.9670   -5.0150   -2.4870 hc        1 MOL      0.098309
     60 H24         9.8860   -2.9870   -2.1110 hn        1 MOL      0.393780
     61 H25        10.4000   -3.8310   -0.6780 hn        1 MOL      0.393780
     62 N7          4.4870   -3.9940   -2.9250 n         1 MOL     -0.490944
     63 C20         3.1970   -3.8860   -3.7190 c3        1 MOL     -0.072591
     64 C21         1.9340   -4.4420   -3.0940 c         1 MOL      0.633115
     65 O12         0.9340   -4.4950   -3.8000 o         1 MOL     -0.600371
     66 H26         4.8690   -4.9320   -2.8420 hn        1 MOL      0.296814
     67 H27         3.3650   -4.5740   -4.5510 h1        1 MOL      0.106400
     68 H28         2.9500   -2.9470   -4.2030 h1        1 MOL      0.106400
     69 N8          1.8810   -4.7620   -1.8100 n         1 MOL     -0.520577
     70 C22         0.5890   -5.1600   -1.1690 c3        1 MOL      0.005822
     71 C23        -0.2850   -3.9200   -1.0010 c         1 MOL      0.613649
     72 O13        -0.0680   -3.0230   -0.1700 o         1 MOL     -0.583025
     73 C24         0.8620   -5.8980    0.1350 c3        1 MOL      0.150398
     74 C25        -0.4100   -6.1430    0.8940 c3        1 MOL     -0.193743
     75 O14         1.3660   -7.2000   -0.1020 oh        1 MOL     -0.581151
     76 H29         2.7840   -4.8820   -1.3820 hn        1 MOL      0.252379
     77 H30         0.1590   -5.8970   -1.8450 h1        1 MOL      0.106280
     78 H31         1.6320   -5.4090    0.7160 h1        1 MOL      0.061428
     79 H32         2.3120   -7.0830   -0.2250 ho        1 MOL      0.362957
     80 H33        -0.8370   -5.2040    1.2290 hc        1 MOL      0.084731
     81 H34        -1.2150   -6.5570    0.2720 hc        1 MOL      0.084731
     82 H35        -0.2000   -6.8000    1.7430 hc        1 MOL      0.084731
     83 N9         -1.4160   -3.9630   -1.6870 n         1 MOL     -0.350272
     84 C26        -2.5560   -3.0900   -1.4700 c3        1 MOL     -0.030601
     85 C27        -3.0810   -3.3160    0.0020 c         1 MOL      0.280994
     86 O15        -3.4730   -4.3930    0.3930 o         1 MOL     -0.544923
     87 C28        -3.5630   -3.1910   -2.6340 c3        1 MOL      0.300677
     88 C29        -4.7600   -2.3420   -2.3340 c3        1 MOL      0.001994
     89 C30        -2.9170   -2.8820   -3.9570 c3        1 MOL     -0.350885
     90 C31        -5.8300   -2.3190   -3.4390 c3        1 MOL     -0.291073
     91 H36        -1.5360   -4.7240   -2.3380 hn        1 MOL      0.255553
     92 H37        -2.1790   -2.0660   -1.4980 h1        1 MOL      0.092170
     93 H38        -3.7900   -4.2520   -2.5560 hc        1 MOL     -0.043619
     94 H39        -4.4770   -1.3090   -2.1300 hc        1 MOL      0.059277
     95 H40        -5.2030   -2.8140   -1.4500 hc        1 MOL      0.059277
     96 H41        -1.9970   -3.4530   -4.0950 hc        1 MOL      0.081034
     97 H42        -3.6230   -3.0730   -4.7650 hc        1 MOL      0.081034
     98 H43        -2.5840   -1.8510   -3.9760 hc        1 MOL      0.081034
     99 H44        -6.6780   -1.6940   -3.1550 hc        1 MOL      0.057163
    100 H45        -5.4530   -1.8640   -4.3580 hc        1 MOL      0.057163
    101 H46        -6.0900   -3.3570   -3.6060 hc        1 MOL      0.057163
    102 N10        -3.3090   -2.2770    0.7660 n         1 MOL      0.200371
    103 C32        -4.1260   -2.1970    2.0030 c3        1 MOL      0.194327
    104 C33        -5.4850   -1.5250    1.8530 c         1 MOL      0.274676
    105 O16        -6.3810   -1.7680    2.6420 o         1 MOL     -0.525334
    106 C34        -3.3740   -1.5010    3.1330 c3        1 MOL     -0.252600
    107 C35        -2.0610   -2.1540    3.4820 c         1 MOL      0.760242
    108 O17        -0.9920   -1.4920    3.3300 o         1 MOL     -0.713094
    109 O18        -2.1040   -3.2800    4.0580 o         1 MOL     -0.713094
    110 H47        -3.0040   -1.3880    0.4040 hn        1 MOL     -0.540336
    111 H48        -4.2820   -3.2110    2.3560 h1        1 MOL      0.052781
    112 H49        -4.0580   -1.4240    3.9770 hc        1 MOL      0.076710
    113 H50        -3.0910   -0.5390    2.6940 hc        1 MOL      0.076710
    114 N11        -5.5710   -0.6860    0.8320 n         1 MOL     -0.258893
    115 C36        -6.7350    0.1490    0.5210 c3        1 MOL      0.519334
    116 C37        -6.4590    1.6760    0.4230 c         1 MOL      0.084968
    117 O19        -6.8100    2.3220   -0.5310 o         1 MOL     -0.412805
    118 C38        -7.6230   -0.3830   -0.6810 c3        1 MOL     -0.298590
    119 C39        -9.0770   -0.1350   -0.5590 ca        1 MOL      0.304720
    120 C40        -9.7050    0.8650   -1.2990 ca        1 MOL     -0.318648
    121 C41        -9.8730   -0.9910    0.2870 ca        1 MOL     -0.318648
    122 C42       -11.0050    1.2240   -1.0410 ca        1 MOL     -0.006396
    123 C43       -11.1690   -0.5810    0.5200 ca        1 MOL     -0.006396
    124 C44       -11.7740    0.4720   -0.1320 ca        1 MOL     -0.227352
    125 H51        -4.6920   -0.3620    0.4350 hn        1 MOL      0.169099
    126 H52        -7.4400    0.0470    1.3390 h1        1 MOL     -0.045213
    127 H53        -7.5710   -1.4750   -0.6110 hc        1 MOL      0.068401
    128 H54        -7.1940   -0.0520   -1.6250 hc        1 MOL      0.068401
    129 H55        -9.1110    1.4480   -1.9860 ha        1 MOL      0.169322
    130 H56        -9.4920   -1.8880    0.7490 ha        1 MOL      0.169322
    131 H57       -11.4740    2.0220   -1.5960 ha        1 MOL      0.075854
    132 H58       -11.8440   -1.0930    1.1910 ha        1 MOL      0.075854
    133 H59       -12.7910    0.7360    0.0870 ha        1 MOL      0.115991
    134 N12        -5.6410    2.2490    1.3470 n         1 MOL      0.050874
    135 C45        -5.0970    3.6360    1.2630 c3        1 MOL      0.013850
    136 C46        -4.4770    3.9860   -0.0740 c         1 MOL      0.337962
    137 O20        -4.6220    5.1510   -0.4500 o         1 MOL     -0.509149
    138 C47        -4.0170    3.6640    2.3540 c3        1 MOL     -0.006956
    139 C48        -4.5350    2.7490    3.4280 c3        1 MOL      0.048071
    140 C49        -5.2340    1.7160    2.6410 c3        1 MOL     -0.178843
    141 H60        -5.9390    4.3050    1.4670 h1        1 MOL      0.054224
    142 H61        -3.1370    3.1170    2.0190 hc        1 MOL      0.020960
    143 H62        -3.7450    4.6230    2.7990 hc        1 MOL      0.020960
    144 H63        -3.7800    2.2390    4.0190 hc        1 MOL      0.003659
    145 H64        -5.2260    3.2610    4.1000 hc        1 MOL      0.003659
    146 H65        -4.4980    0.9650    2.3270 h1        1 MOL      0.094861
    147 H66        -6.0190    1.2680    3.2390 h1        1 MOL      0.094861
    148 N13        -3.7660    3.0710   -0.7080 n         1 MOL     -0.077719
    149 C50        -3.0520    3.3170   -1.9270 c3        1 MOL     -0.398860
    150 C51        -3.9860    3.7870   -3.0620 c         1 MOL      0.585737
    151 O21        -3.5810    4.5120   -3.9900 o         1 MOL     -0.554172
    152 C52        -2.1780    2.1310   -2.3990 c3        1 MOL      0.047653
    153 C53        -1.2340    1.4500   -1.3550 c3        1 MOL     -0.357098
    154 C54        -1.9600    0.3730   -0.4860 c         1 MOL      0.792267
    155 O22        -1.2200   -0.3410    0.2210 o         1 MOL     -0.554183
    156 O23        -3.2040    0.3170   -0.3250 o         1 MOL     -0.554183
    157 H67        -3.6980    2.1320   -0.3520 hn        1 MOL      0.146701
    158 H68        -2.3950    4.1620   -1.7110 h1        1 MOL      0.176104
    159 H69        -1.5400    2.5720   -3.1610 hc        1 MOL      0.027270
    160 H70        -2.7760    1.3520   -2.8890 hc        1 MOL      0.027270
    161 H71        -0.8880    2.1960   -0.6380 hc        1 MOL      0.136338
    162 H72        -0.4220    0.9460   -1.8920 hc        1 MOL      0.136338
    163 N14        -5.2760    3.3780   -2.9750 n         1 MOL     -0.206136
    164 C55        -6.2920    3.8050   -3.8730 c3        1 MOL     -0.178369
    165 H73        -5.8940    3.8240   -4.8880 h1        1 MOL      0.075802
    166 H74        -7.1330    3.1140   -3.8260 h1        1 MOL      0.075802
    167 H75        -6.6270    4.8040   -3.5960 h1        1 MOL      0.075802
    168 H76        -5.5810    2.9840   -2.1000 hn        1 MOL      0.187426
    169 Ca1         0.7460   -0.9660    1.5880 Ca        1 MOL      1.755151
    170 O24         0.4470    1.6270    1.8720 oh        1 MOL     -0.957433
    171 H77         0.2450    2.3660    1.2990 ho        1 MOL      0.447374
    172 H78         0.4890    2.0090    2.7430 ho        1 MOL      0.447374
    173 O25         1.9020   -0.1900   -0.6830 oh        1 MOL     -0.957433
    174 H79         2.0220   -0.4340   -1.6030 ho        1 MOL      0.447374
    175 H80         2.7250    0.2350   -0.4390 ho        1 MOL      0.447374
    176 O26         1.8160   -3.2350    2.5770 oh        1 MOL     -0.957433
    177 H81         1.5470   -3.3400    3.4930 ho        1 MOL      0.447374
    178 H82         2.4880   -3.9030    2.4530 ho        1 MOL      0.447374
@<TRIPOS>BOND
     1    1    2 1   
     2    1    4 1   
     3    1    5 1   
     4    1    6 1   
     5    2    3 2   
     6    2    7 1   
     7    7    8 1   
     8    7   15 1   
     9    8    9 1   
    10    8   11 1   
    11    8   16 1   
    12    9   10 2   
    13    9   19 1   
    14   11   12 1   
    15   11   17 1   
    16   11   18 1   
    17   12   13 1   
    18   12   14 1   
    19   19   20 1   
    20   19   24 1   
    21   20   21 1   
    22   20   23 1   
    23   20   25 1   
    24   21   22 2   
    25   21   29 1   
    26   23   26 1   
    27   23   27 1   
    28   23   28 1   
    29   29   30 1   
    30   29   37 1   
    31   30   31 1   
    32   30   33 1   
    33   30   38 1   
    34   31   32 2   
    35   31   41 1   
    36   33   34 1   
    37   33   39 1   
    38   33   40 1   
    39   34   35 1   
    40   34   36 1   
    41   41   42 1   
    42   41   45 1   
    43   42   43 1   
    44   42   46 1   
    45   42   47 1   
    46   43   44 2   
    47   43   48 1   
    48   48   49 1   
    49   48   56 1   
    50   49   50 1   
    51   49   52 1   
    52   49   57 1   
    53   50   51 2   
    54   50   62 1   
    55   52   53 1   
    56   52   58 1   
    57   52   59 1   
    58   53   54 1   
    59   53   55 2   
    60   54   60 1   
    61   54   61 1   
    62   62   63 1   
    63   62   66 1   
    64   63   64 1   
    65   63   67 1   
    66   63   68 1   
    67   64   65 2   
    68   64   69 1   
    69   69   70 1   
    70   69   76 1   
    71   70   71 1   
    72   70   73 1   
    73   70   77 1   
    74   71   72 2   
    75   71   83 1   
    76   73   74 1   
    77   73   75 1   
    78   73   78 1   
    79   74   80 1   
    80   74   81 1   
    81   74   82 1   
    82   75   79 1   
    83   83   84 1   
    84   83   91 1   
    85   84   85 1   
    86   84   87 1   
    87   84   92 1   
    88   85   86 2   
    89   85  102 1   
    90   87   88 1   
    91   87   89 1   
    92   87   93 1   
    93   88   90 1   
    94   88   94 1   
    95   88   95 1   
    96   89   96 1   
    97   89   97 1   
    98   89   98 1   
    99   90   99 1   
   100   90  100 1   
   101   90  101 1   
   102  102  103 1   
   103  102  110 1   
   104  103  104 1   
   105  103  106 1   
   106  103  111 1   
   107  104  105 2   
   108  104  114 1   
   109  106  107 1   
   110  106  112 1   
   111  106  113 1   
   112  107  108 1   
   113  107  109 1   
   114  114  115 1   
   115  114  125 1   
   116  115  116 1   
   117  115  118 1   
   118  115  126 1   
   119  116  117 2   
   120  116  134 1   
   121  118  119 1   
   122  118  127 1   
   123  118  128 1   
   124  119  120 ar  
   125  119  121 ar  
   126  120  122 ar  
   127  120  129 1   
   128  121  123 ar  
   129  121  130 1   
   130  122  124 ar  
   131  122  131 1   
   132  123  124 ar  
   133  123  132 1   
   134  124  133 1   
   135  134  135 1   
   136  134  140 1   
   137  135  136 1   
   138  135  138 1   
   139  135  141 1   
   140  136  137 2   
   141  136  148 1   
   142  138  139 1   
   143  138  142 1   
   144  138  143 1   
   145  139  140 1   
   146  139  144 1   
   147  139  145 1   
   148  140  146 1   
   149  140  147 1   
   150  148  149 1   
   151  148  157 1   
   152  149  150 1   
   153  149  152 1   
   154  149  158 1   
   155  150  151 2   
   156  150  163 1   
   157  152  153 1   
   158  152  159 1   
   159  152  160 1   
   160  153  154 1   
   161  153  161 1   
   162  153  162 1   
   163  154  155 1   
   164  154  156 1   
   165  163  164 1   
   166  163  168 1   
   167  164  165 1   
   168  164  166 1   
   169  164  167 1   
   170  170  171 1   
   171  170  172 1   
   172  173  174 1   
   173  173  175 1   
   174  176  177 1   
   175  176  178 1   
@<TRIPOS>SUBSTRUCTURE
     1 MOL         1 TEMP              0 ****  ****    0 ROOT
