@<TRIPOS>MOLECULE
MOL
  191   184     1     0     0
SMALL
resp


@<TRIPOS>ATOM
      1 C1         -5.8010   -1.1000    3.5800 c3        1 MOL     -0.468018
      2 C2         -6.0420   -1.5690    2.1200 c         1 MOL      0.609226
      3 O1         -5.2910   -1.2130    1.1960 o         1 MOL     -0.523727
      4 H1         -6.7580   -1.0100    4.0940 hc        1 MOL      0.125997
      5 H2         -5.1780   -1.8300    4.0980 hc        1 MOL      0.125997
      6 H3         -5.2990   -0.1330    3.5730 hc        1 MOL      0.125997
      7 N1         -7.1410   -2.2040    1.7710 n         1 MOL     -0.530882
      8 C3         -7.5620   -2.4450    0.3720 c3        1 MOL      0.241147
      9 C4         -7.6380   -1.1190   -0.4600 c         1 MOL      0.400788
     10 O2         -7.6420   -1.1150   -1.6660 o         1 MOL     -0.433474
     11 C5         -6.7180   -3.5020   -0.3090 c3        1 MOL     -0.242316
     12 C6         -7.4040   -4.1750   -1.5340 c         1 MOL      0.675479
     13 O3         -6.8120   -4.3730   -2.6380 o         1 MOL     -0.629098
     14 O4         -8.5780   -4.5360   -1.2860 o         1 MOL     -0.629098
     15 H4         -7.7370   -2.5670    2.4980 hn        1 MOL      0.303904
     16 H5         -8.5550   -2.8910    0.4130 h1        1 MOL      0.000727
     17 H6         -6.5250   -4.2480    0.4640 hc        1 MOL      0.069617
     18 H7         -5.7820   -3.0420   -0.6050 hc        1 MOL      0.069617
     19 N2         -7.9410   -0.0030    0.1800 n         1 MOL     -0.439675
     20 C7         -8.0190    1.3350   -0.4020 c3        1 MOL      0.012907
     21 C8         -6.6410    1.9560   -0.7150 c         1 MOL      0.491777
     22 O5         -6.5880    3.1120   -1.1380 o         1 MOL     -0.563489
     23 C9         -8.7980    2.1700    0.6350 c3        1 MOL     -0.049192
     24 C10       -10.1710    1.5840    0.6800 c3        1 MOL      0.111764
     25 C11       -11.0240    2.3780    1.7330 c3        1 MOL     -0.026316
     26 C12       -12.3630    1.5790    1.9740 c3        1 MOL      0.138835
     27 N3        -13.3070    2.2790    2.8670 n4        1 MOL     -0.221818
     28 H8         -7.9520   -0.0130    1.1910 hn        1 MOL      0.235906
     29 H9         -8.5530    1.2380   -1.3540 h1        1 MOL      0.125687
     30 H10        -8.8550    3.2220    0.3630 hc        1 MOL      0.032233
     31 H11        -8.2430    2.0200    1.5640 hc        1 MOL      0.032233
     32 H12       -10.1980    0.5560    1.0300 hc        1 MOL     -0.001313
     33 H13       -10.5610    1.6280   -0.3380 hc        1 MOL     -0.001313
     34 H14       -11.3170    3.3870    1.4600 hc        1 MOL      0.001683
     35 H15       -10.4790    2.3660    2.6850 hc        1 MOL      0.001683
     36 H16       -12.0910    0.5810    2.3240 hx        1 MOL      0.031892
     37 H17       -12.8690    1.4140    1.0200 hx        1 MOL      0.031892
     38 H18       -13.9340    1.6530    3.3430 hn        1 MOL      0.237864
     39 H19       -12.7340    2.5400    3.6570 hn        1 MOL      0.237864
     40 H20       -13.8600    3.0160    2.4380 hn        1 MOL      0.237864
     41 N4         -5.5520    1.1730   -0.4850 n         1 MOL     -0.252700
     42 C13        -4.3170    1.8160   -0.7490 c3        1 MOL     -0.124114
     43 C14        -3.8830    1.5860   -2.2080 c         1 MOL      0.522056
     44 O6         -4.0730    0.5220   -2.7780 o         1 MOL     -0.459892
     45 C15        -3.3510    1.3090    0.2720 c3        1 MOL      0.029918
     46 C16        -2.0190    2.1320    0.1960 c         1 MOL      0.729398
     47 O7         -1.0820    1.9960   -0.6500 o         1 MOL     -0.824048
     48 O8         -1.9470    3.1240    1.0330 o         1 MOL     -0.824048
     49 H21        -5.7160    0.3370    0.0700 hn        1 MOL      0.207564
     50 H22        -4.4710    2.8880   -0.6170 h1        1 MOL      0.074870
     51 H23        -3.0320    0.2690    0.1670 hc        1 MOL      0.024637
     52 H24        -3.7330    1.3740    1.2970 hc        1 MOL      0.024637
     53 N5         -3.3700    2.6710   -2.7990 n         1 MOL     -0.247241
     54 C17        -2.8620    2.7270   -4.1500 c3        1 MOL     -0.163653
     55 C18        -1.8490    1.5840   -4.5120 c         1 MOL      0.493061
     56 O9         -1.7140    1.1220   -5.6360 o         1 MOL     -0.527780
     57 H25        -3.4350    3.4790   -2.1900 hn        1 MOL      0.227529
     58 H26        -2.3780    3.6980   -4.2600 h1        1 MOL      0.099916
     59 H27        -3.6340    2.6610   -4.9120 h1        1 MOL      0.099916
     60 N6         -1.1000    1.0940   -3.5070 n         1 MOL     -0.267564
     61 C19        -0.1600    0.0150   -3.5940 c3        1 MOL     -0.016761
     62 C20        -0.7350   -1.3750   -3.1760 c         1 MOL      0.523827
     63 O10         0.0710   -2.3480   -2.9780 o         1 MOL     -0.600615
     64 C21         0.9580    0.3690   -2.6510 c3        1 MOL     -0.538374
     65 C22         1.5370    1.7560   -2.8480 c         1 MOL      0.697357
     66 N7          2.1650    1.9750   -3.9960 n         1 MOL     -0.814493
     67 O11         1.4430    2.6170   -2.0110 o         1 MOL     -0.544797
     68 H28        -1.1750    1.5820   -2.6310 hn        1 MOL      0.189184
     69 H29         0.1360   -0.0650   -4.6440 h1        1 MOL      0.091708
     70 H30         1.7310   -0.3760   -2.8610 hc        1 MOL      0.230348
     71 H31         0.6670    0.2180   -1.6030 hc        1 MOL      0.230348
     72 H32         2.2610    1.1300   -4.5390 hn        1 MOL      0.392820
     73 H33         2.3750    2.9140   -4.3170 hn        1 MOL      0.392820
     74 N8         -2.0220   -1.4730   -2.9710 n         1 MOL     -0.238468
     75 C23        -2.7000   -2.7390   -2.6050 c3        1 MOL     -0.218135
     76 C24        -2.2600   -3.2960   -1.2190 c         1 MOL      0.559709
     77 O12        -2.4140   -4.4730   -1.0160 o         1 MOL     -0.528374
     78 H34        -2.6070   -0.6680   -3.1560 hn        1 MOL      0.230185
     79 H35        -2.3670   -3.5060   -3.3160 h1        1 MOL      0.149475
     80 H36        -3.7770   -2.6400   -2.7330 h1        1 MOL      0.149475
     81 N9         -1.7170   -2.4880   -0.3140 n         1 MOL     -0.393622
     82 C25        -1.0170   -2.6880    0.9770 c3        1 MOL      0.093923
     83 C26         0.3040   -1.9710    1.0000 c         1 MOL      0.468736
     84 O13         0.3950   -0.8110    0.6450 o         1 MOL     -0.503914
     85 C27        -1.9680   -2.2870    2.0980 c3        1 MOL     -0.074610
     86 C28        -1.3190   -2.1280    3.4530 ca        1 MOL      0.004397
     87 C29        -0.9030   -3.2670    4.1440 ca        1 MOL     -0.131867
     88 C30        -1.1700   -0.8800    4.0030 ca        1 MOL     -0.131867
     89 C31        -0.1680   -3.1060    5.3590 ca        1 MOL     -0.302727
     90 C32        -0.6820   -0.7240    5.2540 ca        1 MOL     -0.302727
     91 C33        -0.0510   -1.8020    5.9170 ca        1 MOL      0.382108
     92 O14         0.5840   -1.5310    7.0500 oh        1 MOL     -0.465912
     93 H37        -1.6660   -1.5310   -0.6240 hn        1 MOL      0.231341
     94 H38        -0.9090   -3.7670    1.0030 h1        1 MOL      0.046432
     95 H39        -2.8150   -2.9790    2.0520 hc        1 MOL      0.078291
     96 H40        -2.4980   -1.3460    1.9430 hc        1 MOL      0.078291
     97 H41        -1.0380   -4.2580    3.7490 ha        1 MOL      0.132999
     98 H42        -1.5490   -0.0160    3.4670 ha        1 MOL      0.132999
     99 H43         0.2830   -3.8940    5.9510 ha        1 MOL      0.149868
    100 H44        -0.6660    0.2280    5.7750 ha        1 MOL      0.149868
    101 H45         0.5310   -0.5860    7.1770 ho        1 MOL      0.351876
    102 N10         1.3480   -2.6590    1.5020 n         1 MOL     -0.256738
    103 C34         2.7320   -2.2110    1.4340 c3        1 MOL     -0.034082
    104 C35         3.1230   -2.1760   -0.0320 c         1 MOL      0.317142
    105 O15         3.7070   -1.1410   -0.5040 o         1 MOL     -0.526126
    106 C36         3.7400   -2.9760    2.2840 c3        1 MOL      0.066821
    107 C37         3.3590   -2.8660    3.7680 c3        1 MOL      0.077945
    108 C38         5.1830   -2.4370    2.1220 c3        1 MOL     -0.493238
    109 C39         3.1030   -1.4770    4.4480 c3        1 MOL      0.059605
    110 H46         1.1630   -3.5960    1.8270 hn        1 MOL      0.198809
    111 H47         2.6430   -1.2250    1.8820 h1        1 MOL      0.088457
    112 H48         3.6570   -4.0140    1.9490 hc        1 MOL     -0.004942
    113 H49         4.0150   -3.4810    4.3900 hc        1 MOL     -0.004750
    114 H50         2.4380   -3.4050    3.9750 hc        1 MOL     -0.004750
    115 H51         5.4880   -2.5000    1.0810 hc        1 MOL      0.126000
    116 H52         5.2000   -1.4050    2.4850 hc        1 MOL      0.126000
    117 H53         5.8530   -2.9950    2.7700 hc        1 MOL      0.126000
    118 H54         3.1900   -1.4620    5.5290 hc        1 MOL     -0.020470
    119 H55         3.6980   -0.7330    3.9060 hc        1 MOL     -0.020470
    120 H56         2.1850   -0.9650    4.1820 hc        1 MOL     -0.020470
    121 N11         2.7520   -3.2160   -0.7850 n         1 MOL     -0.208245
    122 C40         3.2270   -3.4120   -2.1940 c3        1 MOL     -0.013867
    123 C41         4.7390   -3.5310   -2.3320 c         1 MOL      0.466414
    124 O16         5.3060   -3.1330   -3.3520 o         1 MOL     -0.511896
    125 C42         2.4860   -4.6610   -2.7540 c3        1 MOL      0.062489
    126 O17         2.8980   -5.6820   -1.8330 oh        1 MOL     -0.650348
    127 H57         2.1150   -3.8960   -0.3780 hn        1 MOL      0.276721
    128 H58         2.8890   -2.6070   -2.8440 h1        1 MOL      0.058619
    129 H59         2.8710   -4.8320   -3.7570 h1        1 MOL      0.091922
    130 H60         1.4080   -4.5780   -2.7260 h1        1 MOL      0.091922
    131 H61         3.1950   -6.3780   -2.4350 ho        1 MOL      0.413659
    132 N12         5.3880   -3.9560   -1.2770 n         1 MOL     -0.253660
    133 C43         6.8400   -3.9180   -1.1100 c3        1 MOL      0.074231
    134 C44         7.4790   -2.5220   -1.4720 c         1 MOL      0.564794
    135 O18         8.6410   -2.4790   -1.7580 o         1 MOL     -0.548739
    136 C45         7.3860   -5.1060   -1.9350 c3        1 MOL     -0.472711
    137 H62         4.9290   -4.4350   -0.5070 hn        1 MOL      0.249283
    138 H63         6.9540   -4.1720   -0.0600 h1        1 MOL      0.091580
    139 H64         6.8930   -5.9700   -1.5040 hc        1 MOL      0.131539
    140 H65         7.1250   -5.0690   -2.9960 hc        1 MOL      0.131539
    141 H66         8.4810   -5.0920   -1.8320 hc        1 MOL      0.131539
    142 N13         6.7770   -1.4140   -1.2560 n         1 MOL     -0.519787
    143 C46         7.1980   -0.0540   -1.5370 c3        1 MOL      0.424633
    144 C47         7.4370    0.6030   -0.1130 c         1 MOL      0.324994
    145 O19         6.8770    0.2640    0.8970 o         1 MOL     -0.373910
    146 C48         6.0290    0.5750   -2.3930 c3        1 MOL     -0.199704
    147 H67         5.8160   -1.4230   -0.9580 hn        1 MOL      0.236518
    148 H68         8.1100    0.0920   -2.1150 h1        1 MOL     -0.020277
    149 H69         5.0760    0.3120   -1.9340 hc        1 MOL      0.051757
    150 H70         6.2240    1.6510   -2.3640 hc        1 MOL      0.051757
    151 H71         6.1180    0.2310   -3.4210 hc        1 MOL      0.051757
    152 N14         8.3450    1.5700   -0.0470 n         1 MOL     -0.442031
    153 C49         8.5900    2.5230    1.0200 c3        1 MOL      0.024103
    154 C50         8.9550    1.8960    2.4140 c         1 MOL      0.417107
    155 O20         8.7970    2.5190    3.4470 o         1 MOL     -0.504289
    156 C51         7.4590    3.5770    1.1270 c3        1 MOL      0.366650
    157 C52         7.0930    4.1940   -0.2180 c3        1 MOL     -0.207103
    158 C53         5.7630    5.0340   -0.2060 c         1 MOL      0.736035
    159 O21         5.2070    5.2160   -1.2760 o         1 MOL     -0.710807
    160 O22         5.3620    5.4110    0.9100 o         1 MOL     -0.710807
    161 H72         8.9070    1.7050   -0.8660 hn        1 MOL      0.262101
    162 H73         9.4580    3.1170    0.7190 h1        1 MOL      0.034212
    163 H74         7.6910    4.4040    1.7980 hc        1 MOL     -0.104158
    164 H75         6.5820    3.0850    1.5340 hc        1 MOL     -0.104158
    165 H76         6.8790    3.3800   -0.9010 hc        1 MOL     -0.002971
    166 H77         7.8960    4.8080   -0.6100 hc        1 MOL     -0.002971
    167 N15         9.5840    0.7430    2.3790 n         1 MOL     -0.254890
    168 C54         9.8060   -0.2750    3.4140 c3        1 MOL     -0.229666
    169 H78         8.8950   -0.4030    3.9980 h1        1 MOL      0.111002
    170 H79        10.0720   -1.2210    2.9430 h1        1 MOL      0.111002
    171 H80        10.6150    0.0440    4.0700 h1        1 MOL      0.111002
    172 H81         9.7760    0.5000    1.4120 hn        1 MOL      0.202519
    173 Ca1         0.3880    4.0220    0.0960 Ca        1 MOL      1.826949
    174 O23        -0.5630    5.2010   -1.9660 oh        1 MOL     -0.841885
    175 H82        -1.4820    5.4630   -2.0360 ho        1 MOL      0.416065
    176 H83        -0.1010    5.7750   -2.5850 ho        1 MOL      0.416065
    177 O24         3.1490    3.8540    0.2800 oh        1 MOL     -0.841885
    178 H84         3.7670    4.5130    0.6120 ho        1 MOL      0.416065
    179 H85         3.5680    3.0150    0.4660 ho        1 MOL      0.416065
    180 O25        -0.7080    6.3310    1.2400 oh        1 MOL     -0.841885
    181 H86        -1.1310    6.2080    2.0960 ho        1 MOL      0.416065
    182 H87        -0.9110    7.2320    1.0120 ho        1 MOL      0.416065
    183 O26         1.7790    6.2400   -0.4280 oh        1 MOL     -0.841885
    184 H88         1.7740    6.4010   -1.3720 ho        1 MOL      0.416065
    185 H89         1.8150    7.1150   -0.0390 ho        1 MOL      0.416065
    186 O27         1.0350    4.3490    2.4820 oh        1 MOL     -0.841885
    187 H90         1.4430    5.0610    2.9660 ho        1 MOL      0.416065
    188 H91         0.9090    3.6550    3.1380 ho        1 MOL      0.416065
    189 O28         1.2700    1.5250    1.2250 oh        1 MOL     -0.841885
    190 H92         0.8950    0.6400    1.2110 ho        1 MOL      0.416065
    191 H93         2.2050    1.3920    1.2140 ho        1 MOL      0.416065
@<TRIPOS>BOND
     1    1    2 1   
     2    1    4 1   
     3    1    5 1   
     4    1    6 1   
     5    2    3 2   
     6    2    7 1   
     7    7    8 1   
     8    7   15 1   
     9    8    9 1   
    10    8   11 1   
    11    8   16 1   
    12    9   10 2   
    13    9   19 1   
    14   11   12 1   
    15   11   17 1   
    16   11   18 1   
    17   12   13 1   
    18   12   14 1   
    19   19   20 1   
    20   19   28 1   
    21   20   21 1   
    22   20   23 1   
    23   20   29 1   
    24   21   22 2   
    25   21   41 1   
    26   23   24 1   
    27   23   30 1   
    28   23   31 1   
    29   24   25 1   
    30   24   32 1   
    31   24   33 1   
    32   25   26 1   
    33   25   34 1   
    34   25   35 1   
    35   26   27 1   
    36   26   36 1   
    37   26   37 1   
    38   27   38 1   
    39   27   39 1   
    40   27   40 1   
    41   41   42 1   
    42   41   49 1   
    43   42   43 1   
    44   42   45 1   
    45   42   50 1   
    46   43   44 2   
    47   43   53 1   
    48   45   46 1   
    49   45   51 1   
    50   45   52 1   
    51   46   47 1   
    52   46   48 1   
    53   53   54 1   
    54   53   57 1   
    55   54   55 1   
    56   54   58 1   
    57   54   59 1   
    58   55   56 2   
    59   55   60 1   
    60   60   61 1   
    61   60   68 1   
    62   61   62 1   
    63   61   64 1   
    64   61   69 1   
    65   62   63 2   
    66   62   74 1   
    67   64   65 1   
    68   64   70 1   
    69   64   71 1   
    70   65   66 1   
    71   65   67 2   
    72   66   72 1   
    73   66   73 1   
    74   74   75 1   
    75   74   78 1   
    76   75   76 1   
    77   75   79 1   
    78   75   80 1   
    79   76   77 2   
    80   76   81 1   
    81   81   82 1   
    82   81   93 1   
    83   82   83 1   
    84   82   85 1   
    85   82   94 1   
    86   83   84 2   
    87   83  102 1   
    88   85   86 1   
    89   85   95 1   
    90   85   96 1   
    91   86   87 ar  
    92   86   88 ar  
    93   87   89 ar  
    94   87   97 1   
    95   88   90 ar  
    96   88   98 1   
    97   89   91 ar  
    98   89   99 1   
    99   90   91 ar  
   100   90  100 1   
   101   91   92 1   
   102   92  101 1   
   103  102  103 1   
   104  102  110 1   
   105  103  104 1   
   106  103  106 1   
   107  103  111 1   
   108  104  105 2   
   109  104  121 1   
   110  106  107 1   
   111  106  108 1   
   112  106  112 1   
   113  107  109 1   
   114  107  113 1   
   115  107  114 1   
   116  108  115 1   
   117  108  116 1   
   118  108  117 1   
   119  109  118 1   
   120  109  119 1   
   121  109  120 1   
   122  121  122 1   
   123  121  127 1   
   124  122  123 1   
   125  122  125 1   
   126  122  128 1   
   127  123  124 2   
   128  123  132 1   
   129  125  126 1   
   130  125  129 1   
   131  125  130 1   
   132  126  131 1   
   133  132  133 1   
   134  132  137 1   
   135  133  134 1   
   136  133  136 1   
   137  133  138 1   
   138  134  135 2   
   139  134  142 1   
   140  136  139 1   
   141  136  140 1   
   142  136  141 1   
   143  142  143 1   
   144  142  147 1   
   145  143  144 1   
   146  143  146 1   
   147  143  148 1   
   148  144  145 2   
   149  144  152 1   
   150  146  149 1   
   151  146  150 1   
   152  146  151 1   
   153  152  153 1   
   154  152  161 1   
   155  153  154 1   
   156  153  156 1   
   157  153  162 1   
   158  154  155 2   
   159  154  167 1   
   160  156  157 1   
   161  156  163 1   
   162  156  164 1   
   163  157  158 1   
   164  157  165 1   
   165  157  166 1   
   166  158  159 1   
   167  158  160 1   
   168  167  168 1   
   169  167  172 1   
   170  168  169 1   
   171  168  170 1   
   172  168  171 1   
   173  174  175 1   
   174  174  176 1   
   175  177  178 1   
   176  177  179 1   
   177  180  181 1   
   178  180  182 1   
   179  183  184 1   
   180  183  185 1   
   181  186  187 1   
   182  186  188 1   
   183  189  190 1   
   184  189  191 1   
@<TRIPOS>SUBSTRUCTURE
     1 MOL         1 TEMP              0 ****  ****    0 ROOT
