@<TRIPOS>MOLECULE
MOL
  195   189     1     0     0
SMALL
resp


@<TRIPOS>ATOM
      1 C1         -2.9830    3.3040   -3.3180 c3        1 MOL     -0.519681
      2 C2         -2.0890    3.6900   -2.1220 c         1 MOL      0.679201
      3 O1         -1.1520    2.9690   -1.7630 o         1 MOL     -0.507093
      4 H1         -3.8030    2.6750   -2.9710 hc        1 MOL      0.130354
      5 H2         -3.3880    4.2070   -3.7770 hc        1 MOL      0.130354
      6 H3         -2.3920    2.7570   -4.0520 hc        1 MOL      0.130354
      7 N1         -2.2980    4.8840   -1.5530 n         1 MOL     -0.616320
      8 C3         -1.6760    5.3860   -0.3500 c3        1 MOL      0.224269
      9 C4         -0.0860    5.3800   -0.4140 c         1 MOL      0.593970
     10 O2          0.6440    5.1120    0.5200 o         1 MOL     -0.484040
     11 C5         -2.2420    4.7410    0.9270 c3        1 MOL     -0.687795
     12 C6         -3.7240    4.4860    0.9820 c         1 MOL      1.115388
     13 O3         -4.5180    5.2930    0.4560 o         1 MOL     -0.817998
     14 O4         -4.2850    3.5230    1.5880 o         1 MOL     -0.817998
     15 H4         -2.9140    5.4150   -2.1440 hn        1 MOL      0.297380
     16 H5         -1.9520    6.4360   -0.3470 h1        1 MOL      0.060062
     17 H6         -1.8550    5.3080    1.7710 hc        1 MOL      0.169987
     18 H7         -1.7980    3.7510    0.9340 hc        1 MOL      0.169987
     19 N2          0.4780    5.7100   -1.6080 n         1 MOL     -0.527298
     20 C7          1.9720    6.0200   -1.7850 c3        1 MOL     -0.192351
     21 C8          2.6130    7.0830   -0.8900 c         1 MOL      0.537115
     22 O5          2.0260    8.0330   -0.4490 o         1 MOL     -0.568247
     23 C9          2.1770    6.3790   -3.2930 c3        1 MOL      0.063429
     24 C10         1.5210    7.7120   -3.7230 c3        1 MOL     -0.016124
     25 C11         1.6910    5.2380   -4.2160 c3        1 MOL     -0.218578
     26 C12         1.9000    8.2900   -5.1170 c3        1 MOL     -0.109766
     27 H8         -0.1230    6.1030   -2.3230 hn        1 MOL      0.287941
     28 H9          2.5630    5.1270   -1.5930 h1        1 MOL      0.178067
     29 H10         3.2530    6.4270   -3.3950 hc        1 MOL      0.073341
     30 H11         1.8300    8.4740   -3.0170 hc        1 MOL      0.030380
     31 H12         0.4310    7.6290   -3.7200 hc        1 MOL      0.030380
     32 H13         1.9700    5.4060   -5.2550 hc        1 MOL      0.056767
     33 H14         2.1290    4.2850   -3.9270 hc        1 MOL      0.056767
     34 H15         0.6160    5.0760   -4.1840 hc        1 MOL      0.056767
     35 H16         1.5730    7.6950   -5.9730 hc        1 MOL      0.019013
     36 H17         1.3580    9.2430   -5.1970 hc        1 MOL      0.019013
     37 H18         2.9630    8.5250   -5.2380 hc        1 MOL      0.019013
     38 N3          3.8620    6.9270   -0.4800 n         1 MOL     -0.339918
     39 C13         4.8310    5.8120   -0.7930 c3        1 MOL     -0.051895
     40 C14         4.7190    4.4620   -0.0530 c         1 MOL      0.523104
     41 O6          5.4390    3.5270   -0.4190 o         1 MOL     -0.570501
     42 C15         6.3030    6.3160   -0.6400 c3        1 MOL     -0.055331
     43 C16         6.7700    6.9540    0.7020 c         1 MOL      0.712010
     44 O7          7.9960    6.9740    0.8740 o         1 MOL     -0.717620
     45 O8          5.9630    7.3250    1.5400 o         1 MOL     -0.717620
     46 H19         4.2220    7.5720    0.2170 hn        1 MOL      0.241304
     47 H20         4.6780    5.5550   -1.8400 h1        1 MOL      0.022671
     48 H21         6.4250    7.1110   -1.3810 hc        1 MOL     -0.003113
     49 H22         7.0840    5.6200   -0.9600 hc        1 MOL     -0.003113
     50 N4          3.8290    4.3230    0.8940 n         1 MOL     -0.301358
     51 C17         3.3260    3.0530    1.5620 c3        1 MOL     -0.135904
     52 C18         4.4370    2.3360    2.3390 c         1 MOL      0.596883
     53 O9          5.4180    3.0010    2.6240 o         1 MOL     -0.492025
     54 H23         3.4200    5.1960    1.1980 hn        1 MOL      0.287979
     55 H24         2.9400    2.3620    0.8180 h1        1 MOL      0.083581
     56 H25         2.5700    3.3370    2.3030 h1        1 MOL      0.083581
     57 N5          4.3420    1.0280    2.6900 n         1 MOL     -0.530140
     58 C19         5.4560    0.2240    3.2880 c3        1 MOL      0.013685
     59 C20         6.5570   -0.1860    2.2560 c         1 MOL      0.485261
     60 O10         7.5710   -0.7000    2.7020 o         1 MOL     -0.600828
     61 C21         4.8740   -1.0790    3.9490 c3        1 MOL      0.047506
     62 C22         4.0560   -2.0170    3.0450 c         1 MOL      0.665835
     63 O11         4.3910   -1.9940    1.8170 o         1 MOL     -0.681994
     64 O12         3.1540   -2.6940    3.5580 o         1 MOL     -0.681994
     65 H26         3.5040    0.5160    2.4860 hn        1 MOL      0.273441
     66 H27         6.0420    0.7510    4.0430 h1        1 MOL      0.075998
     67 H28         4.3200   -0.7840    4.8400 hc        1 MOL     -0.035027
     68 H29         5.7340   -1.6560    4.2950 hc        1 MOL     -0.035027
     69 N6          6.3170   -0.0940    0.9750 n         1 MOL     -0.154889
     70 C23         7.1350   -0.5590   -0.1950 c3        1 MOL     -0.255408
     71 C24         7.2850   -2.0740   -0.3260 c         1 MOL      0.540978
     72 O13         8.0270   -2.5030   -1.2270 o         1 MOL     -0.621071
     73 H30         5.4220    0.3360    0.7550 hn        1 MOL      0.221829
     74 H31         8.1460   -0.1750   -0.0550 h1        1 MOL      0.123482
     75 H32         6.7580   -0.2100   -1.1590 h1        1 MOL      0.123482
     76 N7          6.6100   -2.8530    0.4600 n         1 MOL     -0.029886
     77 C25         6.5910   -4.3210    0.4530 c3        1 MOL      0.045639
     78 C26         6.0490   -4.9180   -0.8400 c         1 MOL      0.360828
     79 O14         6.2590   -6.1230   -1.0950 o         1 MOL     -0.486632
     80 C27         7.8470   -4.9690    1.0260 c3        1 MOL     -0.037539
     81 C28         8.1770   -4.3500    2.3770 c3        1 MOL     -0.217175
     82 C29         9.3160   -4.9170    3.1700 c         1 MOL      0.675128
     83 N8          9.7320   -4.2120    4.1880 n         1 MOL     -0.800262
     84 O15         9.9750   -5.9600    2.8970 o         1 MOL     -0.585870
     85 H33         6.0360   -2.3700    1.1330 hn        1 MOL      0.037616
     86 H34         5.9010   -4.4550    1.2810 h1        1 MOL      0.107838
     87 H35         8.7230   -4.7840    0.4000 hc        1 MOL      0.035313
     88 H36         7.7050   -6.0340    1.1930 hc        1 MOL      0.035313
     89 H37         7.2400   -4.3580    2.9240 hc        1 MOL      0.086133
     90 H38         8.4590   -3.3200    2.1600 hc        1 MOL      0.086133
     91 H39         9.3790   -3.2610    4.2800 hn        1 MOL      0.352931
     92 H40        10.3160   -4.5310    4.9480 hn        1 MOL      0.352931
     93 N9          5.2690   -4.1650   -1.6330 n         1 MOL     -0.376746
     94 C30         4.8340   -4.5860   -2.9930 c3        1 MOL     -0.013592
     95 C31         3.3440   -4.5230   -3.2120 c         1 MOL      0.581349
     96 O16         2.7730   -5.1180   -4.1060 o         1 MOL     -0.595264
     97 C32         5.6090   -3.8970   -4.1140 c3        1 MOL      0.354678
     98 C33         5.3350   -2.4410   -4.2450 c3        1 MOL     -0.270454
     99 C34         7.1570   -4.1900   -4.2210 c3        1 MOL     -0.270454
    100 H41         4.9400   -3.2710   -1.3070 hn        1 MOL      0.257111
    101 H42         5.0940   -5.6320   -3.0930 h1        1 MOL      0.076038
    102 H43         5.2280   -4.2380   -5.0740 hc        1 MOL     -0.075722
    103 H44         5.7030   -1.9860   -5.1590 hc        1 MOL      0.055949
    104 H45         4.2660   -2.2360   -4.2030 hc        1 MOL      0.055949
    105 H46         5.6930   -1.9350   -3.3530 hc        1 MOL      0.055949
    106 H47         7.6300   -4.1210   -3.2400 hc        1 MOL      0.055949
    107 H48         7.2230   -5.2260   -4.5690 hc        1 MOL      0.055949
    108 H49         7.5860   -3.4570   -4.8990 hc        1 MOL      0.055949
    109 N10         2.6710   -3.8620   -2.3030 n         1 MOL     -0.448618
    110 C35         1.2740   -3.5170   -2.4160 c3        1 MOL      0.345453
    111 C36         0.4220   -4.0090   -1.2450 c         1 MOL      0.582112
    112 O17         0.9090   -4.4730   -0.2360 o         1 MOL     -0.546535
    113 C37         1.3130   -1.9790   -2.5640 c3        1 MOL     -0.250368
    114 C38        -0.0550   -1.3710   -2.9020 c         1 MOL      0.563411
    115 N11        -0.4600   -0.2650   -2.3120 n         1 MOL     -0.681128
    116 O18        -0.8920   -2.0360   -3.5210 o         1 MOL     -0.561656
    117 H50         3.2030   -3.3530   -1.6070 hn        1 MOL      0.190419
    118 H51         0.7440   -3.9440   -3.2630 h1        1 MOL      0.010779
    119 H52         1.9880   -1.7260   -3.3780 hc        1 MOL      0.071327
    120 H53         1.6650   -1.5720   -1.6130 hc        1 MOL      0.071327
    121 H54         0.1190    0.3680   -1.7870 hn        1 MOL      0.331768
    122 H55        -1.1790    0.1680   -2.8820 hn        1 MOL      0.331768
    123 N12        -0.8900   -3.6860   -1.2440 n         1 MOL     -0.735832
    124 C39        -1.7600   -3.8190   -0.0460 c3        1 MOL      0.312826
    125 C40        -3.2310   -3.6140   -0.4250 c         1 MOL      0.499870
    126 O19        -3.5980   -2.6750   -1.2270 o         1 MOL     -0.602208
    127 C41        -1.3470   -2.7520    1.0020 c3        1 MOL     -0.197156
    128 C42        -2.2300   -2.6950    2.2320 ca        1 MOL     -0.044148
    129 C43        -2.9500   -1.5450    2.5960 ca        1 MOL     -0.072670
    130 C44        -2.3050   -3.8130    3.1920 ca        1 MOL     -0.072670
    131 C45        -3.6640   -1.4780    3.8140 ca        1 MOL     -0.338106
    132 C46        -3.0200   -3.6890    4.3680 ca        1 MOL     -0.338106
    133 C47        -3.7280   -2.5630    4.6870 ca        1 MOL      0.441434
    134 O20        -4.3470   -2.4800    5.8280 oh        1 MOL     -0.511518
    135 H56        -1.3720   -3.1680   -1.9720 hn        1 MOL      0.391022
    136 H57        -1.6990   -4.8010    0.4150 h1        1 MOL      0.050431
    137 H58        -1.2950   -1.7430    0.5890 hc        1 MOL      0.119080
    138 H59        -0.3970   -3.0570    1.4460 hc        1 MOL      0.119080
    139 H60        -2.8200   -0.7030    1.9200 ha        1 MOL      0.112743
    140 H61        -1.7990   -4.7300    2.9570 ha        1 MOL      0.112743
    141 H62        -4.1480   -0.5480    4.0820 ha        1 MOL      0.150277
    142 H63        -3.0190   -4.4930    5.0920 ha        1 MOL      0.150277
    143 H64        -4.6480   -1.5660    5.8750 ho        1 MOL      0.365126
    144 N13        -4.0970   -4.5760   -0.0450 n         1 MOL     -0.523619
    145 C48        -5.4250   -4.7910   -0.5080 c3        1 MOL      0.182130
    146 C49        -6.2840   -4.4740    0.7350 c         1 MOL      0.552019
    147 O21        -6.6160   -5.3050    1.5660 o         1 MOL     -0.556983
    148 C50        -5.5740   -6.2870   -0.8880 c3        1 MOL      0.047436
    149 C51        -6.9930   -6.4880   -1.4550 c3        1 MOL     -0.107392
    150 C52        -7.2820   -7.8160   -2.0630 c         1 MOL      0.673915
    151 O22        -8.0520   -7.8010   -3.0570 o         1 MOL     -0.716898
    152 O23        -6.6580   -8.7890   -1.5570 o         1 MOL     -0.716898
    153 H65        -3.7470   -5.3980    0.4290 hn        1 MOL      0.265282
    154 H66        -5.7540   -4.2160   -1.3750 h1        1 MOL      0.053975
    155 H67        -5.4510   -6.9450   -0.0350 hc        1 MOL      0.000087
    156 H68        -4.8460   -6.5900   -1.6510 hc        1 MOL      0.000087
    157 H69        -7.2210   -5.7560   -2.2200 hc        1 MOL      0.025658
    158 H70        -7.7580   -6.4000   -0.6870 hc        1 MOL      0.025658
    159 N14        -6.8470   -3.2990    0.8860 n         1 MOL     -0.600002
    160 C53        -6.7120   -2.1380   -0.1030 c3        1 MOL      0.229755
    161 C54        -7.4310   -2.3390   -1.4480 c         1 MOL      0.379192
    162 O24        -8.3350   -3.1020   -1.5930 o         1 MOL     -0.504594
    163 C55        -7.1720   -0.7450    0.4910 c3        1 MOL      0.092683
    164 C56        -6.2020   -0.2700    1.6220 c3        1 MOL     -0.026948
    165 C57        -6.7370    0.9590    2.4010 c         1 MOL      0.672910
    166 O25        -7.2740    1.9310    1.8500 o         1 MOL     -0.669762
    167 O26        -6.6490    0.9500    3.6350 o         1 MOL     -0.669762
    168 H71        -7.3960   -3.1420    1.7240 hn        1 MOL      0.355072
    169 H72        -5.6570   -1.9420   -0.3110 h1        1 MOL      0.068731
    170 H73        -8.1840   -0.8010    0.8770 hc        1 MOL     -0.086374
    171 H74        -7.0970    0.0170   -0.2820 hc        1 MOL     -0.086374
    172 H75        -5.3230   -0.0000    1.0420 hc        1 MOL     -0.041306
    173 H76        -5.9700   -1.0560    2.3460 hc        1 MOL     -0.041306
    174 N15        -6.8290   -1.7100   -2.4870 n         1 MOL     -0.223554
    175 C58        -7.0580   -1.7960   -3.9580 c3        1 MOL     -0.380882
    176 H77        -7.5920   -2.7180   -4.1890 h1        1 MOL      0.142467
    177 H78        -7.6510   -0.9400   -4.2840 h1        1 MOL      0.142467
    178 H79        -6.0990   -1.7930   -4.4760 h1        1 MOL      0.142467
    179 H80        -6.1320   -1.0290   -2.1990 hn        1 MOL      0.228076
    180 Ca1        -6.6910    4.2010    1.0450 Ca        1 MOL      1.805615
    181 O27        -5.5560    2.6590   -0.7680 oh        1 MOL     -0.905765
    182 H81        -4.6560    2.3610   -0.6480 ho        1 MOL      0.426832
    183 H82        -5.9040    2.0690   -1.4330 ho        1 MOL      0.426832
    184 O28        -6.1000    5.2230    3.6180 oh        1 MOL     -0.905765
    185 H83        -6.0270    4.6260    4.3660 ho        1 MOL      0.426832
    186 H84        -6.0880    6.0940    4.0150 ho        1 MOL      0.426832
    187 O29        -8.7040    4.2830    2.8770 oh        1 MOL     -0.905765
    188 H85        -9.0850    5.1130    3.1640 ho        1 MOL      0.426832
    189 H86        -9.1090    3.6220    3.4310 ho        1 MOL      0.426832
    190 O30        -8.4880    3.2630   -0.6510 oh        1 MOL     -0.905765
    191 H87        -8.5990    3.1650   -1.5980 ho        1 MOL      0.426832
    192 H88        -9.2460    2.8270   -0.2730 ho        1 MOL      0.426832
    193 O31        -7.4960    6.7560    0.9730 oh        1 MOL     -0.905765
    194 H89        -7.6780    7.4920    1.5570 ho        1 MOL      0.426832
    195 H90        -8.1450    6.8230    0.2720 ho        1 MOL      0.426832
@<TRIPOS>BOND
     1    1    2 1   
     2    1    4 1   
     3    1    5 1   
     4    1    6 1   
     5    2    3 2   
     6    2    7 1   
     7    7    8 1   
     8    7   15 1   
     9    8    9 1   
    10    8   11 1   
    11    8   16 1   
    12    9   10 2   
    13    9   19 1   
    14   11   12 1   
    15   11   17 1   
    16   11   18 1   
    17   12   13 1   
    18   12   14 1   
    19   19   20 1   
    20   19   27 1   
    21   20   21 1   
    22   20   23 1   
    23   20   28 1   
    24   21   22 2   
    25   21   38 1   
    26   23   24 1   
    27   23   25 1   
    28   23   29 1   
    29   24   26 1   
    30   24   30 1   
    31   24   31 1   
    32   25   32 1   
    33   25   33 1   
    34   25   34 1   
    35   26   35 1   
    36   26   36 1   
    37   26   37 1   
    38   38   39 1   
    39   38   46 1   
    40   39   40 1   
    41   39   42 1   
    42   39   47 1   
    43   40   41 2   
    44   40   50 1   
    45   42   43 1   
    46   42   48 1   
    47   42   49 1   
    48   43   44 1   
    49   43   45 1   
    50   50   51 1   
    51   50   54 1   
    52   51   52 1   
    53   51   55 1   
    54   51   56 1   
    55   52   53 2   
    56   52   57 1   
    57   57   58 1   
    58   57   65 1   
    59   58   59 1   
    60   58   61 1   
    61   58   66 1   
    62   59   60 2   
    63   59   69 1   
    64   61   62 1   
    65   61   67 1   
    66   61   68 1   
    67   62   63 1   
    68   62   64 1   
    69   69   70 1   
    70   69   73 1   
    71   70   71 1   
    72   70   74 1   
    73   70   75 1   
    74   71   72 2   
    75   71   76 1   
    76   76   77 1   
    77   76   85 1   
    78   77   78 1   
    79   77   80 1   
    80   77   86 1   
    81   78   79 2   
    82   78   93 1   
    83   80   81 1   
    84   80   87 1   
    85   80   88 1   
    86   81   82 1   
    87   81   89 1   
    88   81   90 1   
    89   82   83 1   
    90   82   84 2   
    91   83   91 1   
    92   83   92 1   
    93   93   94 1   
    94   93  100 1   
    95   94   95 1   
    96   94   97 1   
    97   94  101 1   
    98   95   96 2   
    99   95  109 1   
   100   97   98 1   
   101   97   99 1   
   102   97  102 1   
   103   98  103 1   
   104   98  104 1   
   105   98  105 1   
   106   99  106 1   
   107   99  107 1   
   108   99  108 1   
   109  109  110 1   
   110  109  117 1   
   111  110  111 1   
   112  110  113 1   
   113  110  118 1   
   114  111  112 2   
   115  111  123 1   
   116  113  114 1   
   117  113  119 1   
   118  113  120 1   
   119  114  115 1   
   120  114  116 2   
   121  115  121 1   
   122  115  122 1   
   123  123  124 1   
   124  123  135 1   
   125  124  125 1   
   126  124  127 1   
   127  124  136 1   
   128  125  126 2   
   129  125  144 1   
   130  127  128 1   
   131  127  137 1   
   132  127  138 1   
   133  128  129 ar  
   134  128  130 ar  
   135  129  131 ar  
   136  129  139 1   
   137  130  132 ar  
   138  130  140 1   
   139  131  133 ar  
   140  131  141 1   
   141  132  133 ar  
   142  132  142 1   
   143  133  134 1   
   144  134  143 1   
   145  144  145 1   
   146  144  153 1   
   147  145  146 1   
   148  145  148 1   
   149  145  154 1   
   150  146  147 2   
   151  146  159 1   
   152  148  149 1   
   153  148  155 1   
   154  148  156 1   
   155  149  150 1   
   156  149  157 1   
   157  149  158 1   
   158  150  151 1   
   159  150  152 1   
   160  159  160 1   
   161  159  168 1   
   162  160  161 1   
   163  160  163 1   
   164  160  169 1   
   165  161  162 2   
   166  161  174 1   
   167  163  164 1   
   168  163  170 1   
   169  163  171 1   
   170  164  165 1   
   171  164  172 1   
   172  164  173 1   
   173  165  166 1   
   174  165  167 1   
   175  174  175 1   
   176  174  179 1   
   177  175  176 1   
   178  175  177 1   
   179  175  178 1   
   180  181  182 1   
   181  181  183 1   
   182  184  185 1   
   183  184  186 1   
   184  187  188 1   
   185  187  189 1   
   186  190  191 1   
   187  190  192 1   
   188  193  194 1   
   189  193  195 1   
@<TRIPOS>SUBSTRUCTURE
     1 MOL         1 TEMP              0 ****  ****    0 ROOT
