@<TRIPOS>MOLECULE
MOL
  188   182     1     0     0
SMALL
resp


@<TRIPOS>ATOM
      1 C1          4.6480   -0.6050    5.9360 c3        1 MOL     -0.473797
      2 C2          3.7990   -0.6050    4.6230 c         1 MOL      0.581633
      3 O1          2.7460   -1.2790    4.5150 o         1 MOL     -0.569451
      4 H1          4.7260   -1.6220    6.3170 hc        1 MOL      0.126756
      5 H2          5.6450   -0.2180    5.7250 hc        1 MOL      0.126756
      6 H3          4.1640    0.0250    6.6830 hc        1 MOL      0.126756
      7 N1          4.3130   -0.0010    3.5310 n         1 MOL     -0.445941
      8 C3          3.6840   -0.0930    2.1890 c3        1 MOL      0.079466
      9 C4          3.5180   -1.4750    1.5660 c         1 MOL      0.113092
     10 O2          2.5780   -1.5770    0.7580 o         1 MOL     -0.268011
     11 C5          4.3260    0.8610    1.1390 c3        1 MOL     -0.255325
     12 C6          5.8680    0.6850    1.1890 c         1 MOL      0.604892
     13 O3          6.3620   -0.3940    0.8050 o         1 MOL     -0.640491
     14 O4          6.5360    1.6620    1.5320 o         1 MOL     -0.640491
     15 H4          5.1310    0.5330    3.7760 hn        1 MOL      0.326527
     16 H5          2.6450    0.2360    2.2840 h1        1 MOL      0.106451
     17 H6          4.0670    1.8740    1.4440 hc        1 MOL      0.054721
     18 H7          3.9500    0.7050    0.1360 hc        1 MOL      0.054721
     19 N2          4.3130   -2.5080    1.9750 n         1 MOL     -0.090614
     20 C7          4.2800   -3.8750    1.5050 c3        1 MOL     -0.098120
     21 C8          4.8360   -4.0560    0.0310 c         1 MOL      0.477225
     22 O5          5.9150   -4.6610   -0.2020 o         1 MOL     -0.564118
     23 C9          5.0230   -4.8330    2.5210 c3        1 MOL     -0.153563
     24 C10         4.3830   -5.0130    3.9140 c3        1 MOL     -0.002137
     25 C11         5.3560   -5.5930    4.9520 c3        1 MOL     -0.106263
     26 C12         4.4950   -5.8390    6.2560 c3        1 MOL      0.078883
     27 N3          5.4180   -6.4690    7.2870 n4        1 MOL     -0.369444
     28 H8          5.1250   -2.1590    2.4680 hn        1 MOL      0.254709
     29 H9          3.2930   -4.3310    1.4160 h1        1 MOL      0.143199
     30 H10         6.0680   -4.5450    2.6600 hc        1 MOL      0.075287
     31 H11         5.0140   -5.7980    2.0210 hc        1 MOL      0.075287
     32 H12         3.5120   -5.6610    3.8050 hc        1 MOL      0.024944
     33 H13         4.1010   -4.0140    4.2600 hc        1 MOL      0.024944
     34 H14         6.1330   -4.8580    5.1790 hc        1 MOL      0.059054
     35 H15         5.8850   -6.4840    4.6110 hc        1 MOL      0.059054
     36 H16         3.6000   -6.4570    6.2180 hx        1 MOL      0.084193
     37 H17         4.0480   -4.9010    6.5860 hx        1 MOL      0.084193
     38 H18         6.2100   -5.8750    7.5140 hn        1 MOL      0.316420
     39 H19         4.9990   -6.5630    8.2020 hn        1 MOL      0.316420
     40 H20         5.7540   -7.3770    6.9990 hn        1 MOL      0.316420
     41 N4          4.0400   -3.5940   -0.8970 n         1 MOL     -0.173509
     42 C13         4.2780   -3.6300   -2.4070 c3        1 MOL     -0.029469
     43 C14         4.6140   -2.2660   -2.9670 c         1 MOL      0.502533
     44 O6          4.3150   -1.9120   -4.1230 o         1 MOL     -0.481896
     45 C15         3.1900   -4.1920   -3.2400 c3        1 MOL     -0.031585
     46 C16         1.8350   -3.4320   -3.0950 c         1 MOL      0.585922
     47 O7          1.1600   -3.2590   -4.1150 o         1 MOL     -0.631345
     48 O8          1.5680   -2.9930   -1.9290 o         1 MOL     -0.631345
     49 H21         3.1940   -3.1120   -0.6380 hn        1 MOL     -0.074055
     50 H22         5.0980   -4.3130   -2.6070 h1        1 MOL      0.089385
     51 H23         3.0630   -5.2310   -2.9850 hc        1 MOL      0.032938
     52 H24         3.4920   -4.2670   -4.2820 hc        1 MOL      0.032938
     53 N5          5.1400   -1.3330   -2.1200 n         1 MOL     -0.412231
     54 C17         5.3130    0.0770   -2.3920 c3        1 MOL     -0.012844
     55 C18         6.2700    0.1990   -3.6190 c         1 MOL      0.545640
     56 O9          6.9980   -0.6640   -4.0780 o         1 MOL     -0.501447
     57 H25         5.4360   -1.6390   -1.2080 hn        1 MOL      0.281866
     58 H26         5.5790    0.6600   -1.5040 h1        1 MOL      0.115718
     59 H27         4.3700    0.5310   -2.6880 h1        1 MOL      0.115718
     60 N6          6.2130    1.3640   -4.2790 n         1 MOL     -0.540578
     61 C19         5.5110    2.5980   -3.9060 c3        1 MOL      0.254736
     62 C20         5.9990    3.1480   -2.5920 c         1 MOL      0.306936
     63 O10         7.2030    3.0910   -2.2750 o         1 MOL     -0.460454
     64 C21         5.6700    3.6790   -5.0260 c3        1 MOL     -0.410890
     65 C22         5.0350    3.2270   -6.3800 c         1 MOL      0.716579
     66 N7          5.1440    4.0230   -7.3640 n         1 MOL     -0.781025
     67 O11         4.4160    2.1900   -6.5410 o         1 MOL     -0.547069
     68 H28         6.7340    1.5050   -5.1350 hn        1 MOL      0.322618
     69 H29         4.4440    2.3640   -3.8360 h1        1 MOL      0.000554
     70 H30         6.7310    3.8250   -5.2340 hc        1 MOL      0.123935
     71 H31         5.1370    4.6080   -4.8560 hc        1 MOL      0.123935
     72 H32         5.7810    4.8040   -7.3300 hn        1 MOL      0.355642
     73 H33         4.8550    3.6300   -8.2420 hn        1 MOL      0.355642
     74 N8          5.0690    3.6080   -1.7260 n         1 MOL     -0.232124
     75 C23         3.6320    3.6320   -1.8070 c3        1 MOL     -0.109388
     76 C24         2.9210    3.9410   -0.4460 c         1 MOL      0.667551
     77 O12         3.5530    4.1050    0.5610 o         1 MOL     -0.507143
     78 H34         5.4580    4.1360   -0.9560 hn        1 MOL      0.257131
     79 H35         3.2980    2.5900   -1.9090 h1        1 MOL      0.038003
     80 H36         3.2280    4.3130   -2.5540 h1        1 MOL      0.038003
     81 N9          1.6020    4.0060   -0.3930 n         1 MOL     -0.562388
     82 C25         0.7780    4.3060    0.7540 c3        1 MOL      0.052368
     83 C26        -0.4990    3.3920    0.8500 c         1 MOL      0.800737
     84 O13        -0.7080    2.6170   -0.0320 o         1 MOL     -0.554231
     85 C27         0.4860    5.8200    0.7860 c3        1 MOL     -0.068282
     86 C28        -0.3090    6.3070    1.9940 ca        1 MOL     -0.000619
     87 C29        -1.6980    6.5840    1.8300 ca        1 MOL     -0.118762
     88 C30         0.4150    6.6320    3.1800 ca        1 MOL     -0.118762
     89 C31        -2.3570    7.2000    2.9540 ca        1 MOL     -0.298643
     90 C32        -0.2590    7.4240    4.1780 ca        1 MOL     -0.298643
     91 C33        -1.6700    7.6000    4.0690 ca        1 MOL      0.403825
     92 O14        -2.4050    8.2060    5.0880 oh        1 MOL     -0.538671
     93 H37         1.1150    4.0140   -1.2810 hn        1 MOL      0.277488
     94 H38         1.3110    4.0920    1.6800 h1        1 MOL      0.053726
     95 H39        -0.0110    6.1030   -0.1380 hc        1 MOL      0.060054
     96 H40         1.4240    6.3720    0.7120 hc        1 MOL      0.060054
     97 H41        -2.2260    6.3200    0.9280 ha        1 MOL      0.145538
     98 H42         1.4840    6.5210    3.2940 ha        1 MOL      0.145538
     99 H43        -3.4200    7.4220    2.8790 ha        1 MOL      0.154731
    100 H44         0.2490    7.7900    5.0530 ha        1 MOL      0.154731
    101 H45        -1.9480    8.2550    5.9250 ho        1 MOL      0.383324
    102 N10        -1.3920    3.5700    1.8210 n         1 MOL     -0.699009
    103 C34        -2.6870    2.7820    1.9080 c3        1 MOL     -0.245386
    104 C35        -3.6210    3.2700    0.8000 c         1 MOL      0.653520
    105 O15        -3.5970    4.4580    0.5270 o         1 MOL     -0.495871
    106 C36        -3.3310    2.9340    3.3470 c3        1 MOL      0.390742
    107 C37        -2.7720    1.9140    4.3710 c3        1 MOL     -0.055162
    108 C38        -3.4640    4.3560    3.8180 c3        1 MOL     -0.058974
    109 C39        -3.7340    1.7050    5.5780 c3        1 MOL     -0.237462
    110 H46        -1.3980    4.4340    2.3350 hn        1 MOL      0.285495
    111 H47        -2.5420    1.7170    1.7320 h1        1 MOL      0.134076
    112 H48        -4.3810    2.6920    3.1680 hc        1 MOL     -0.053348
    113 H49        -1.7710    2.1120    4.7660 hc        1 MOL      0.032731
    114 H50        -2.9160    0.9460    3.8970 hc        1 MOL      0.032731
    115 H51        -2.5170    4.6290    4.2850 hc        1 MOL      0.012415
    116 H52        -3.7350    4.9250    2.9330 hc        1 MOL      0.012415
    117 H53        -4.2570    4.3550    4.5630 hc        1 MOL      0.012415
    118 H54        -4.6350    1.1380    5.3440 hc        1 MOL      0.060159
    119 H55        -3.0970    1.2290    6.3240 hc        1 MOL      0.060159
    120 H56        -4.0320    2.6990    5.8990 hc        1 MOL      0.060159
    121 N11        -4.5300    2.4330    0.2900 n         1 MOL     -0.418112
    122 C40        -5.5740    2.6470   -0.7050 c3        1 MOL     -0.084775
    123 C41        -5.8060    1.4320   -1.5980 c         1 MOL      0.755904
    124 O16        -5.7360    0.2700   -1.1260 o         1 MOL     -0.507112
    125 C42        -6.9660    3.0660   -0.1110 c3        1 MOL     -0.004918
    126 O17        -7.4710    2.2180    1.0490 oh        1 MOL     -0.560435
    127 H57        -4.5730    1.5070    0.6780 hn        1 MOL      0.247160
    128 H58        -5.2590    3.3980   -1.4180 h1        1 MOL      0.091955
    129 H59        -7.8200    3.0930   -0.7790 h1        1 MOL      0.079778
    130 H60        -6.7720    4.0950    0.2020 h1        1 MOL      0.079778
    131 H61        -8.1720    2.7580    1.4350 ho        1 MOL      0.393365
    132 N12        -6.0390    1.5650   -2.8820 n         1 MOL     -0.676137
    133 C43        -6.0580    0.4970   -3.9460 c3        1 MOL      0.302840
    134 C44        -6.8990   -0.7770   -3.6410 c         1 MOL      0.416794
    135 O18        -6.5070   -1.9070   -3.9290 o         1 MOL     -0.430912
    136 C45        -4.5780    0.1360   -4.2940 c3        1 MOL     -0.455129
    137 H62        -6.0880    2.4910   -3.2830 hn        1 MOL      0.321200
    138 H63        -6.4380    0.8740   -4.8990 h1        1 MOL      0.050201
    139 H64        -4.5050   -0.5870   -5.1120 hc        1 MOL      0.144041
    140 H65        -3.9290    1.0030   -4.2810 hc        1 MOL      0.144041
    141 H66        -4.1780   -0.3940   -3.4250 hc        1 MOL      0.144041
    142 N13        -8.0700   -0.5720   -2.9630 n         1 MOL     -0.623461
    143 C46        -8.9060   -1.6110   -2.3520 c3        1 MOL      0.543527
    144 C47        -8.2540   -2.7930   -1.6010 c         1 MOL      0.186598
    145 O19        -8.8880   -3.8660   -1.5190 o         1 MOL     -0.491820
    146 C48       -10.0140   -2.1200   -3.3240 c3        1 MOL     -0.288206
    147 H67        -8.3170    0.3860   -2.7650 hn        1 MOL      0.293150
    148 H68        -9.3850   -1.1090   -1.5030 h1        1 MOL     -0.031086
    149 H69        -9.6650   -2.8410   -4.0550 hc        1 MOL      0.071443
    150 H70       -10.8010   -2.5730   -2.7160 hc        1 MOL      0.071443
    151 H71       -10.4030   -1.2120   -3.7930 hc        1 MOL      0.071443
    152 N14        -7.0040   -2.7190   -1.1410 n         1 MOL      0.005959
    153 C49        -6.2840   -3.8390   -0.5750 c3        1 MOL     -0.167627
    154 C50        -6.9160   -4.5140    0.6750 c         1 MOL      0.462674
    155 O20        -6.7370   -5.6880    0.9250 o         1 MOL     -0.506302
    156 C51        -4.8140   -3.3880   -0.4090 c3        1 MOL      0.334412
    157 C52        -3.7890   -4.5250   -0.1310 c3        1 MOL     -0.427416
    158 C53        -2.3440   -3.9440    0.0060 c         1 MOL      0.676597
    159 O21        -1.9260   -3.5020    1.1420 o         1 MOL     -0.712056
    160 O22        -1.6700   -3.7160   -1.0570 o         1 MOL     -0.712056
    161 H72        -6.5180   -1.8500   -1.2880 hn        1 MOL      0.021129
    162 H73        -6.2680   -4.6240   -1.3350 h1        1 MOL      0.137073
    163 H74        -4.8730   -2.6360    0.3830 hc        1 MOL     -0.060992
    164 H75        -4.5740   -2.9070   -1.3560 hc        1 MOL     -0.060992
    165 H76        -3.7800   -5.2030   -0.9870 hc        1 MOL      0.111387
    166 H77        -4.0380   -5.0970    0.7630 hc        1 MOL      0.111387
    167 N15        -7.6530   -3.7280    1.4990 n         1 MOL     -0.179898
    168 C54        -8.3040   -4.2120    2.6480 c3        1 MOL     -0.263766
    169 H78        -8.2550   -5.3000    2.6600 h1        1 MOL      0.102235
    170 H79        -7.8140   -3.8160    3.5380 h1        1 MOL      0.102235
    171 H80        -9.3470   -3.8960    2.6350 h1        1 MOL      0.102235
    172 H81        -7.8690   -2.7560    1.2930 hn        1 MOL      0.190436
    173 Ca1         0.1380   -1.8850   -0.2360 Ca        1 MOL      1.763287
    174 O23         1.1260   -4.2850    0.5170 oh        1 MOL     -0.853569
    175 H82         1.3450   -4.6810   -0.3260 ho        1 MOL      0.405662
    176 H83         0.9140   -5.0230    1.0900 ho        1 MOL      0.405662
    177 O24        -0.1530   -1.1970   -2.8610 oh        1 MOL     -0.853569
    178 O25        -2.1050   -0.3590   -0.5410 oh        1 MOL     -0.853569
    179 H84        -0.5640   -0.5800   -3.4730 ho        1 MOL      0.405662
    180 H85        -2.6860   -0.3340   -1.2990 ho        1 MOL      0.405662
    181 H86         0.4390   -1.7060   -3.4090 ho        1 MOL      0.405662
    182 H87        -2.7000   -0.3230    0.2150 ho        1 MOL      0.405662
    183 O26         0.9380    0.5740   -0.6160 oh        1 MOL     -0.853569
    184 O27         0.0130   -1.0870    2.2790 oh        1 MOL     -0.853569
    185 H88         0.3300    1.1280   -0.1250 ho        1 MOL      0.405662
    186 H89         0.0240   -1.8110    2.8990 ho        1 MOL      0.405662
    187 H90         1.1820    1.1040   -1.3810 ho        1 MOL      0.405662
    188 H91         0.2370   -0.3200    2.7930 ho        1 MOL      0.405662
@<TRIPOS>BOND
     1    1    2 1   
     2    1    4 1   
     3    1    5 1   
     4    1    6 1   
     5    2    3 2   
     6    2    7 1   
     7    7    8 1   
     8    7   15 1   
     9    8    9 1   
    10    8   11 1   
    11    8   16 1   
    12    9   10 2   
    13    9   19 1   
    14   11   12 1   
    15   11   17 1   
    16   11   18 1   
    17   12   13 1   
    18   12   14 1   
    19   19   20 1   
    20   19   28 1   
    21   20   21 1   
    22   20   23 1   
    23   20   29 1   
    24   21   22 2   
    25   21   41 1   
    26   23   24 1   
    27   23   30 1   
    28   23   31 1   
    29   24   25 1   
    30   24   32 1   
    31   24   33 1   
    32   25   26 1   
    33   25   34 1   
    34   25   35 1   
    35   26   27 1   
    36   26   36 1   
    37   26   37 1   
    38   27   38 1   
    39   27   39 1   
    40   27   40 1   
    41   41   42 1   
    42   41   49 1   
    43   42   43 1   
    44   42   45 1   
    45   42   50 1   
    46   43   44 2   
    47   43   53 1   
    48   45   46 1   
    49   45   51 1   
    50   45   52 1   
    51   46   47 1   
    52   46   48 1   
    53   53   54 1   
    54   53   57 1   
    55   54   55 1   
    56   54   58 1   
    57   54   59 1   
    58   55   56 2   
    59   55   60 1   
    60   60   61 1   
    61   60   68 1   
    62   61   62 1   
    63   61   64 1   
    64   61   69 1   
    65   62   63 2   
    66   62   74 1   
    67   64   65 1   
    68   64   70 1   
    69   64   71 1   
    70   65   66 1   
    71   65   67 2   
    72   66   72 1   
    73   66   73 1   
    74   74   75 1   
    75   74   78 1   
    76   75   76 1   
    77   75   79 1   
    78   75   80 1   
    79   76   77 2   
    80   76   81 1   
    81   81   82 1   
    82   81   93 1   
    83   82   83 1   
    84   82   85 1   
    85   82   94 1   
    86   83   84 2   
    87   83  102 1   
    88   85   86 1   
    89   85   95 1   
    90   85   96 1   
    91   86   87 ar  
    92   86   88 ar  
    93   87   89 ar  
    94   87   97 1   
    95   88   90 ar  
    96   88   98 1   
    97   89   91 ar  
    98   89   99 1   
    99   90   91 ar  
   100   90  100 1   
   101   91   92 1   
   102   92  101 1   
   103  102  103 1   
   104  102  110 1   
   105  103  104 1   
   106  103  106 1   
   107  103  111 1   
   108  104  105 2   
   109  104  121 1   
   110  106  107 1   
   111  106  108 1   
   112  106  112 1   
   113  107  109 1   
   114  107  113 1   
   115  107  114 1   
   116  108  115 1   
   117  108  116 1   
   118  108  117 1   
   119  109  118 1   
   120  109  119 1   
   121  109  120 1   
   122  121  122 1   
   123  121  127 1   
   124  122  123 1   
   125  122  125 1   
   126  122  128 1   
   127  123  124 2   
   128  123  132 1   
   129  125  126 1   
   130  125  129 1   
   131  125  130 1   
   132  126  131 1   
   133  132  133 1   
   134  132  137 1   
   135  133  134 1   
   136  133  136 1   
   137  133  138 1   
   138  134  135 2   
   139  134  142 1   
   140  136  139 1   
   141  136  140 1   
   142  136  141 1   
   143  142  143 1   
   144  142  147 1   
   145  143  144 1   
   146  143  146 1   
   147  143  148 1   
   148  144  145 2   
   149  144  152 1   
   150  146  149 1   
   151  146  150 1   
   152  146  151 1   
   153  152  153 1   
   154  152  161 1   
   155  153  154 1   
   156  153  156 1   
   157  153  162 1   
   158  154  155 2   
   159  154  167 1   
   160  156  157 1   
   161  156  163 1   
   162  156  164 1   
   163  157  158 1   
   164  157  165 1   
   165  157  166 1   
   166  158  159 1   
   167  158  160 1   
   168  167  168 1   
   169  167  172 1   
   170  168  169 1   
   171  168  170 1   
   172  168  171 1   
   173  174  175 1   
   174  174  176 1   
   175  177  179 1   
   176  177  181 1   
   177  178  180 1   
   178  178  182 1   
   179  183  185 1   
   180  183  187 1   
   181  184  186 1   
   182  184  188 1   
@<TRIPOS>SUBSTRUCTURE
     1 MOL         1 TEMP              0 ****  ****    0 ROOT
