@<TRIPOS>MOLECULE
MOL
  181   177     1     0     0
SMALL
resp


@<TRIPOS>ATOM
      1 C1          0.9610    5.0680   -3.4340 c3        1 MOL     -0.419646
      2 C2          2.2120    4.9910   -2.4710 c         1 MOL      0.662545
      3 O1          2.2250    5.3660   -1.3050 o         1 MOL     -0.549629
      4 H1          0.0460    4.9970   -2.8460 hc        1 MOL      0.108828
      5 H2          0.9740    6.0150   -3.9720 hc        1 MOL      0.108828
      6 H3          1.0000    4.2440   -4.1460 hc        1 MOL      0.108828
      7 N1          3.4130    4.7870   -3.1000 n         1 MOL     -0.614486
      8 C3          4.6930    4.8770   -2.3840 c3        1 MOL      0.226652
      9 C4          4.8240    3.8520   -1.1950 c         1 MOL      0.742368
     10 O2          4.5080    2.6730   -1.3340 o         1 MOL     -0.639878
     11 C5          5.9950    4.7050   -3.2730 c3        1 MOL     -0.229824
     12 C6          7.3140    5.2600   -2.7080 c         1 MOL      0.764140
     13 O3          8.3410    5.1530   -3.4460 o         1 MOL     -0.745189
     14 O4          7.2500    5.7360   -1.5820 o         1 MOL     -0.745189
     15 H4          3.4510    4.4060   -4.0390 hn        1 MOL      0.297227
     16 H5          4.7270    5.9170   -2.0550 h1        1 MOL      0.040740
     17 H6          5.7130    5.2140   -4.1960 hc        1 MOL      0.006076
     18 H7          6.0700    3.6400   -3.4670 hc        1 MOL      0.006076
     19 N2          5.2710    4.2260    0.0260 n         1 MOL     -0.734889
     20 C7          5.2900    3.3200    1.1560 c3        1 MOL      0.506862
     21 C8          3.9630    3.3080    1.9870 c         1 MOL      0.253956
     22 O5          3.2130    4.3040    1.9260 o         1 MOL     -0.511535
     23 C9          6.5720    3.6010    1.9320 c3        1 MOL     -0.114987
     24 H8          5.6350    5.1550    0.1860 hn        1 MOL      0.315928
     25 H9          5.4730    2.3050    0.7880 h1        1 MOL      0.042851
     26 H10         6.6190    2.9180    2.7720 hc        1 MOL      0.010943
     27 H11         7.4650    3.3970    1.3400 hc        1 MOL      0.010943
     28 H12         6.7260    4.5730    2.3990 hc        1 MOL      0.010943
     29 N3          3.6570    2.4070    2.9130 n         1 MOL     -0.162563
     30 C10         4.4950    1.3600    3.5860 c3        1 MOL     -0.213006
     31 C11         4.9770    0.2420    2.6390 c         1 MOL      0.710106
     32 O6          4.3540    0.0250    1.5670 o         1 MOL     -0.540102
     33 C12         3.6540    0.8160    4.7510 c3        1 MOL     -0.105131
     34 C13         2.1390    0.5360    4.4990 c         1 MOL      0.625673
     35 O7          1.2740    1.4110    4.6730 o         1 MOL     -0.709684
     36 O8          1.7710   -0.6170    4.0860 o         1 MOL     -0.709684
     37 H13         2.8000    2.5090    3.4410 hn        1 MOL      0.207077
     38 H14         5.3910    1.8570    3.9560 h1        1 MOL      0.086624
     39 H15         3.7390    1.4410    5.6350 hc        1 MOL      0.026787
     40 H16         4.1430   -0.1160    5.0360 hc        1 MOL      0.026787
     41 N4          6.1340   -0.3470    2.8870 n         1 MOL     -0.510646
     42 C14         6.8880   -1.2530    1.9530 c3        1 MOL     -0.165322
     43 C15         7.1760   -0.5960    0.5700 c         1 MOL      0.639896
     44 O9          7.3900    0.5720    0.5140 o         1 MOL     -0.547426
     45 H17         6.5570   -0.0120    3.7360 hn        1 MOL      0.284158
     46 H18         6.4320   -2.2260    1.7930 h1        1 MOL      0.143711
     47 H19         7.8410   -1.3010    2.4830 h1        1 MOL      0.143711
     48 N5          7.3220   -1.3540   -0.4620 n         1 MOL     -0.553207
     49 C16         7.2540   -2.9120   -0.6340 c3        1 MOL     -0.029710
     50 C17         6.4150   -3.3930   -1.8050 c         1 MOL      0.581228
     51 O10         6.4210   -4.5820   -2.1000 o         1 MOL     -0.514211
     52 C18         8.7330   -3.4820   -0.7100 c3        1 MOL     -0.199413
     53 C19         9.4470   -3.2960    0.6710 c         1 MOL      0.635422
     54 N6         10.4450   -2.4660    0.7460 n         1 MOL     -0.767801
     55 O11         8.9780   -3.7270    1.7660 o         1 MOL     -0.579522
     56 H20         7.6380   -0.8520   -1.2850 hn        1 MOL      0.323859
     57 H21         6.8090   -3.3860    0.2450 h1        1 MOL      0.134700
     58 H22         9.3470   -2.8970   -1.4080 hc        1 MOL      0.063471
     59 H23         8.8200   -4.5410   -0.9390 hc        1 MOL      0.063471
     60 H24        10.8340   -2.1290   -0.1200 hn        1 MOL      0.373154
     61 H25        10.7860   -2.1960    1.6570 hn        1 MOL      0.373154
     62 N7          5.7600   -2.4610   -2.5190 n         1 MOL     -0.320140
     63 C20         5.0210   -2.7780   -3.6940 c3        1 MOL     -0.168543
     64 C21         3.8060   -3.6670   -3.4310 c         1 MOL      0.597128
     65 O12         3.5660   -4.5060   -4.2380 o         1 MOL     -0.546247
     66 H26         6.0080   -1.5010   -2.3230 hn        1 MOL      0.291609
     67 H27         5.6000   -3.4290   -4.3570 h1        1 MOL      0.099730
     68 H28         4.7880   -1.8750   -4.2590 h1        1 MOL      0.099730
     69 N8          2.9510   -3.4570   -2.4120 n         1 MOL     -0.447723
     70 C22         1.7140   -4.2350   -2.1330 c3        1 MOL      0.041628
     71 C23         0.5450   -3.3420   -1.6970 c         1 MOL      0.477402
     72 O13         0.7120   -2.2450   -1.1070 o         1 MOL     -0.508897
     73 C24         1.9710   -5.2390   -1.0160 c3        1 MOL      0.415004
     74 C25         2.8950   -6.4700   -1.2720 c3        1 MOL     -0.279422
     75 O14         2.3740   -4.6240    0.1670 oh        1 MOL     -0.612169
     76 H29         3.3200   -2.8530   -1.6870 hn        1 MOL      0.238831
     77 H30         1.4490   -4.8610   -2.9930 h1        1 MOL      0.057743
     78 H31         1.0190   -5.7420   -0.8250 h1        1 MOL     -0.054763
     79 H32         1.6220   -4.1330    0.5100 ho        1 MOL      0.420216
     80 H33         2.7290   -7.1930   -0.4770 hc        1 MOL      0.072792
     81 H34         2.6540   -6.9670   -2.2200 hc        1 MOL      0.072792
     82 H35         3.9480   -6.1920   -1.3030 hc        1 MOL      0.072792
     83 N9         -0.7020   -3.7890   -1.9520 n         1 MOL     -0.385064
     84 C26        -2.0020   -3.1530   -1.6550 c3        1 MOL     -0.079405
     85 C27        -2.6170   -3.8610   -0.4120 c         1 MOL      0.403573
     86 O15        -2.8020   -5.0900   -0.4670 o         1 MOL     -0.575358
     87 C28        -3.0070   -3.1420   -2.7980 c3        1 MOL      0.072055
     88 C29        -4.3930   -2.6850   -2.3910 c3        1 MOL      0.115335
     89 C30        -2.3960   -2.3860   -3.9410 c3        1 MOL     -0.128195
     90 C31        -5.4860   -2.9100   -3.4400 c3        1 MOL     -0.140875
     91 H36        -0.7310   -4.5330   -2.6400 hn        1 MOL      0.260474
     92 H37        -1.9070   -2.1330   -1.2640 h1        1 MOL      0.210825
     93 H38        -2.9760   -4.1750   -3.1610 hc        1 MOL      0.009268
     94 H39        -4.5290   -1.6160   -2.2270 hc        1 MOL     -0.001441
     95 H40        -4.6650   -3.2240   -1.4900 hc        1 MOL     -0.001441
     96 H41        -2.8580   -2.5370   -4.9250 hc        1 MOL      0.024475
     97 H42        -2.4810   -1.3010   -3.8070 hc        1 MOL      0.024475
     98 H43        -1.3330   -2.6090   -3.9980 hc        1 MOL      0.024475
     99 H44        -5.4070   -3.9060   -3.8570 hc        1 MOL      0.017967
    100 H45        -6.4400   -2.8680   -2.9160 hc        1 MOL      0.017967
    101 H46        -5.3800   -2.1870   -4.2510 hc        1 MOL      0.017967
    102 N10        -2.9410   -3.1350    0.6150 n         1 MOL     -0.201501
    103 C32        -3.8110   -3.4800    1.8050 c3        1 MOL      0.239379
    104 C33        -5.2130   -2.7850    1.9030 c         1 MOL      0.360539
    105 O16        -6.0660   -3.1010    2.7420 o         1 MOL     -0.523934
    106 C34        -3.0960   -3.5270    3.1140 c3        1 MOL     -0.367607
    107 C35        -2.2710   -2.2070    3.2970 c         1 MOL      0.807185
    108 O17        -2.8150   -1.1260    3.5360 o         1 MOL     -0.743403
    109 O18        -1.0120   -2.2580    3.1960 o         1 MOL     -0.743403
    110 H47        -2.7730   -2.1570    0.4170 hn        1 MOL      0.186821
    111 H48        -4.2350   -4.4680    1.5680 h1        1 MOL      0.031701
    112 H49        -2.3870   -4.3520    3.0010 hc        1 MOL      0.085590
    113 H50        -3.8810   -3.6450    3.8630 hc        1 MOL      0.085590
    114 N11        -5.4300   -1.7640    1.0550 n         1 MOL     -0.164188
    115 C36        -6.6820   -0.9560    0.9080 c3        1 MOL      0.029708
    116 C37        -6.5490    0.4520    0.2560 c         1 MOL      0.311304
    117 O19        -6.8300    0.6860   -0.9260 o         1 MOL     -0.406527
    118 C38        -7.7750   -1.7560    0.1500 c3        1 MOL     -0.079763
    119 C39        -9.0750   -1.0210   -0.0400 ca        1 MOL     -0.010389
    120 C40        -9.6690   -0.3730    1.0770 ca        1 MOL     -0.087153
    121 C41        -9.5030   -0.7770   -1.3470 ca        1 MOL     -0.087153
    122 C42       -10.7670    0.4270    0.8810 ca        1 MOL     -0.160172
    123 C43       -10.5840    0.0920   -1.4950 ca        1 MOL     -0.160172
    124 C44       -11.2400    0.6740   -0.4050 ca        1 MOL     -0.082355
    125 H51        -4.6630   -1.6200    0.4160 hn        1 MOL      0.056108
    126 H52        -6.9370   -0.7310    1.9460 h1        1 MOL      0.057143
    127 H53        -7.8970   -2.6690    0.7330 hc        1 MOL      0.065270
    128 H54        -7.3770   -2.0290   -0.8250 hc        1 MOL      0.065270
    129 H55        -9.4320   -0.6550    2.0980 ha        1 MOL      0.105662
    130 H56        -9.0630   -1.3210   -2.1750 ha        1 MOL      0.105662
    131 H57       -11.2260    0.9240    1.7170 ha        1 MOL      0.107438
    132 H58       -10.8580    0.3500   -2.5010 ha        1 MOL      0.107438
    133 H59       -12.1170    1.2810   -0.5900 ha        1 MOL      0.087153
    134 N12        -6.1760    1.4950    1.0340 n         1 MOL     -0.064364
    135 C45        -6.3180    2.9000    0.6160 c3        1 MOL     -0.022191
    136 C46        -5.4510    3.3250   -0.5600 c         1 MOL      0.270471
    137 O20        -5.5390    4.4010   -1.0880 o         1 MOL     -0.479938
    138 C47        -6.0100    3.7080    1.8780 c3        1 MOL     -0.088996
    139 C48        -5.0820    2.8970    2.7490 c3        1 MOL      0.029575
    140 C49        -5.5400    1.4720    2.3340 c3        1 MOL     -0.105647
    141 H60        -7.3680    3.0980    0.4100 h1        1 MOL      0.084147
    142 H61        -5.5870    4.6980    1.7050 hc        1 MOL      0.035768
    143 H62        -6.9340    3.7680    2.4590 hc        1 MOL      0.035768
    144 H63        -4.0540    3.1600    2.4870 hc        1 MOL      0.033622
    145 H64        -5.2950    3.0790    3.7980 hc        1 MOL      0.033622
    146 H65        -4.6190    0.9150    2.1520 h1        1 MOL      0.068522
    147 H66        -6.2750    1.1780    3.0860 h1        1 MOL      0.068522
    148 N13        -4.5190    2.4550   -0.9880 n         1 MOL     -0.065424
    149 C50        -3.8010    2.5750   -2.3160 c3        1 MOL     -0.226577
    150 C51        -4.7790    2.6670   -3.5320 c         1 MOL      0.404926
    151 O21        -4.4950    3.3840   -4.5390 o         1 MOL     -0.552341
    152 C52        -2.9220    1.2840   -2.5750 c3        1 MOL      0.083858
    153 C53        -1.8220    1.0840   -1.5260 c3        1 MOL     -0.131699
    154 C54        -2.3240    0.5680   -0.1830 c         1 MOL      0.232404
    155 O22        -1.7060    0.9910    0.8570 o         1 MOL     -0.575692
    156 O23        -3.2650   -0.2100   -0.0370 o         1 MOL     -0.575692
    157 H67        -4.5870    1.5340   -0.5960 hn        1 MOL      0.351454
    158 H68        -3.2150    3.4960   -2.3510 h1        1 MOL      0.152752
    159 H69        -2.3660    1.3560   -3.5100 hc        1 MOL      0.005192
    160 H70        -3.6240    0.4470   -2.5570 hc        1 MOL      0.005192
    161 H71        -1.3620    2.0760   -1.5510 hc        1 MOL      0.068776
    162 H72        -1.1150    0.3830   -1.9650 hc        1 MOL      0.068776
    163 N14        -5.8920    1.9910   -3.4280 n         1 MOL     -0.040951
    164 C55        -6.9580    2.1440   -4.3730 c3        1 MOL     -0.288882
    165 H73        -7.9140    2.0880   -3.8530 h1        1 MOL      0.101071
    166 H74        -6.8700    3.1110   -4.8660 h1        1 MOL      0.101071
    167 H75        -6.9020    1.3490   -5.1160 h1        1 MOL      0.101071
    168 H76        -6.0330    1.2870   -2.7300 hn        1 MOL      0.134031
    169 Ca1        -0.6560    0.3820    3.1280 Ca        1 MOL      1.740919
    170 O24        -1.4060    0.3460    5.6520 oh        1 MOL     -0.785763
    171 H77        -1.4050   -0.4150    6.2430 ho        1 MOL      0.388885
    172 H78        -1.2740    1.0970    6.2350 ho        1 MOL      0.388885
    173 O25         0.7840    2.4230    1.9320 oh        1 MOL     -0.785763
    174 H79         0.5580    3.3560    1.9250 ho        1 MOL      0.388885
    175 H80         1.3810    2.3170    1.1990 ho        1 MOL      0.388885
    176 O26        -1.9660    2.5180    3.9010 oh        1 MOL     -0.785763
    177 H81        -2.5740    2.5470    4.6500 ho        1 MOL      0.388885
    178 H82        -1.4890    3.3490    3.9570 ho        1 MOL      0.388885
    179 O27         0.7260   -0.7640    1.0320 oh        1 MOL     -0.785763
    180 H83         1.2820   -0.0880    0.6440 ho        1 MOL      0.388885
    181 H84         0.3340   -1.2050    0.2720 ho        1 MOL      0.388885
@<TRIPOS>BOND
     1    1    2 1   
     2    1    4 1   
     3    1    5 1   
     4    1    6 1   
     5    2    3 2   
     6    2    7 1   
     7    7    8 1   
     8    7   15 1   
     9    8    9 1   
    10    8   11 1   
    11    8   16 1   
    12    9   10 2   
    13    9   19 1   
    14   11   12 1   
    15   11   17 1   
    16   11   18 1   
    17   12   13 1   
    18   12   14 1   
    19   19   20 1   
    20   19   24 1   
    21   20   21 1   
    22   20   23 1   
    23   20   25 1   
    24   21   22 2   
    25   21   29 1   
    26   23   26 1   
    27   23   27 1   
    28   23   28 1   
    29   29   30 1   
    30   29   37 1   
    31   30   31 1   
    32   30   33 1   
    33   30   38 1   
    34   31   32 2   
    35   31   41 1   
    36   33   34 1   
    37   33   39 1   
    38   33   40 1   
    39   34   35 1   
    40   34   36 1   
    41   41   42 1   
    42   41   45 1   
    43   42   43 1   
    44   42   46 1   
    45   42   47 1   
    46   43   44 2   
    47   43   48 1   
    48   48   49 1   
    49   48   56 1   
    50   49   50 1   
    51   49   52 1   
    52   49   57 1   
    53   50   51 2   
    54   50   62 1   
    55   52   53 1   
    56   52   58 1   
    57   52   59 1   
    58   53   54 1   
    59   53   55 2   
    60   54   60 1   
    61   54   61 1   
    62   62   63 1   
    63   62   66 1   
    64   63   64 1   
    65   63   67 1   
    66   63   68 1   
    67   64   65 2   
    68   64   69 1   
    69   69   70 1   
    70   69   76 1   
    71   70   71 1   
    72   70   73 1   
    73   70   77 1   
    74   71   72 2   
    75   71   83 1   
    76   73   74 1   
    77   73   75 1   
    78   73   78 1   
    79   74   80 1   
    80   74   81 1   
    81   74   82 1   
    82   75   79 1   
    83   83   84 1   
    84   83   91 1   
    85   84   85 1   
    86   84   87 1   
    87   84   92 1   
    88   85   86 2   
    89   85  102 1   
    90   87   88 1   
    91   87   89 1   
    92   87   93 1   
    93   88   90 1   
    94   88   94 1   
    95   88   95 1   
    96   89   96 1   
    97   89   97 1   
    98   89   98 1   
    99   90   99 1   
   100   90  100 1   
   101   90  101 1   
   102  102  103 1   
   103  102  110 1   
   104  103  104 1   
   105  103  106 1   
   106  103  111 1   
   107  104  105 2   
   108  104  114 1   
   109  106  107 1   
   110  106  112 1   
   111  106  113 1   
   112  107  108 1   
   113  107  109 1   
   114  114  115 1   
   115  114  125 1   
   116  115  116 1   
   117  115  118 1   
   118  115  126 1   
   119  116  117 2   
   120  116  134 1   
   121  118  119 1   
   122  118  127 1   
   123  118  128 1   
   124  119  120 ar  
   125  119  121 ar  
   126  120  122 ar  
   127  120  129 1   
   128  121  123 ar  
   129  121  130 1   
   130  122  124 ar  
   131  122  131 1   
   132  123  124 ar  
   133  123  132 1   
   134  124  133 1   
   135  134  135 1   
   136  134  140 1   
   137  135  136 1   
   138  135  138 1   
   139  135  141 1   
   140  136  137 2   
   141  136  148 1   
   142  138  139 1   
   143  138  142 1   
   144  138  143 1   
   145  139  140 1   
   146  139  144 1   
   147  139  145 1   
   148  140  146 1   
   149  140  147 1   
   150  148  149 1   
   151  148  157 1   
   152  149  150 1   
   153  149  152 1   
   154  149  158 1   
   155  150  151 2   
   156  150  163 1   
   157  152  153 1   
   158  152  159 1   
   159  152  160 1   
   160  153  154 1   
   161  153  161 1   
   162  153  162 1   
   163  154  155 1   
   164  154  156 1   
   165  163  164 1   
   166  163  168 1   
   167  164  165 1   
   168  164  166 1   
   169  164  167 1   
   170  170  171 1   
   171  170  172 1   
   172  173  174 1   
   173  173  175 1   
   174  176  177 1   
   175  176  178 1   
   176  179  180 1   
   177  179  181 1   
@<TRIPOS>SUBSTRUCTURE
     1 MOL         1 TEMP              0 ****  ****    0 ROOT
