@<TRIPOS>MOLECULE
MOL
  179   176     1     0     0
SMALL
resp


@<TRIPOS>ATOM
      1 C1          2.7490    0.4120    6.5540 c3        1 MOL     -0.328825
      2 C2          2.7060    0.8560    5.0690 c         1 MOL      0.716628
      3 O1          3.6980    0.7710    4.3130 o         1 MOL     -0.558418
      4 H1          1.7710    0.0310    6.8480 hc        1 MOL      0.091149
      5 H2          3.4960   -0.3720    6.6770 hc        1 MOL      0.091149
      6 H3          3.0100    1.2650    7.1810 hc        1 MOL      0.091149
      7 N1          1.4990    1.3220    4.6300 n         1 MOL     -0.553416
      8 C3          1.2350    1.5920    3.2530 c3        1 MOL     -0.251886
      9 C4          1.8860    2.9280    2.7840 c         1 MOL      0.829452
     10 O2          2.0430    3.8950    3.5050 o         1 MOL     -0.585667
     11 C5         -0.2360    1.6550    2.9930 c3        1 MOL      0.028963
     12 C6         -0.7350    1.6500    1.5900 c         1 MOL      0.504870
     13 O3         -2.0130    1.5990    1.3890 o         1 MOL     -0.699131
     14 O4          0.0220    1.5330    0.6300 o         1 MOL     -0.699131
     15 H4          0.7200    1.1750    5.2590 hn        1 MOL      0.318258
     16 H5          1.7050    0.8070    2.6690 h1        1 MOL      0.079880
     17 H6         -0.8140    2.4540    3.4550 hc        1 MOL      0.042256
     18 H7         -0.6830    0.7790    3.4750 hc        1 MOL      0.042256
     19 N2          2.3580    2.9050    1.5320 n         1 MOL     -0.519240
     20 C7          3.0280    4.0470    0.9510 c3        1 MOL     -0.134846
     21 C8          2.1000    4.9520    0.1330 c         1 MOL      0.552113
     22 O5          2.3490    6.1440    0.0180 o         1 MOL     -0.556047
     23 C9          4.2460    3.5820    0.0850 c3        1 MOL      0.132820
     24 C10         5.3980    4.5690   -0.0210 c3        1 MOL      0.040138
     25 C11         6.7790    3.9490   -0.5790 c3        1 MOL      0.027774
     26 C12         7.5410    4.9530   -1.4460 c3        1 MOL     -0.010438
     27 N3          7.9940    6.1290   -0.6790 n4        1 MOL     -0.277338
     28 H8          2.0890    2.1370    0.9370 hn        1 MOL      0.332573
     29 H9          3.4780    4.6140    1.7540 h1        1 MOL      0.128809
     30 H10         3.9950    3.4060   -0.9610 hc        1 MOL      0.009003
     31 H11         4.7070    2.6870    0.5270 hc        1 MOL      0.009003
     32 H12         5.6600    5.0550    0.9200 hc        1 MOL     -0.028310
     33 H13         5.1320    5.4240   -0.6540 hc        1 MOL     -0.028310
     34 H14         6.5550    3.0230   -1.1030 hc        1 MOL      0.022381
     35 H15         7.3890    3.6320    0.2630 hc        1 MOL      0.022381
     36 H16         6.8400    5.1720   -2.2470 hx        1 MOL      0.090555
     37 H17         8.3630    4.4420   -1.9340 hx        1 MOL      0.090555
     38 H18         8.7300    6.0320    0.0020 hn        1 MOL      0.302551
     39 H19         8.2740    6.8910   -1.2960 hn        1 MOL      0.302551
     40 H20         7.2410    6.4850   -0.1170 hn        1 MOL      0.302551
     41 N4          1.0120    4.3460   -0.4720 n         1 MOL     -0.449717
     42 C13         0.0170    5.2150   -1.1450 c3        1 MOL      0.097033
     43 C14        -1.2570    5.4950   -0.3540 c         1 MOL      0.428840
     44 O6         -1.9270    6.4140   -0.6740 o         1 MOL     -0.533035
     45 C15        -0.2830    4.6110   -2.4700 c3        1 MOL     -0.196777
     46 C16        -0.8290    3.1210   -2.5250 c         1 MOL      0.662037
     47 O7         -1.5130    2.6820   -1.5960 o         1 MOL     -0.696743
     48 O8         -0.5360    2.4520   -3.5230 o         1 MOL     -0.696743
     49 H21         0.8110    3.3620   -0.3440 hn        1 MOL      0.293828
     50 H22         0.4760    6.1600   -1.4270 h1        1 MOL      0.096903
     51 H23         0.6200    4.6120   -3.0740 hc        1 MOL      0.053459
     52 H24        -0.9350    5.2840   -3.0250 hc        1 MOL      0.053459
     53 N5         -1.6300    4.6990    0.6370 n         1 MOL     -0.123018
     54 C17        -2.8110    4.9420    1.4700 c3        1 MOL     -0.228818
     55 C18        -4.1780    4.6270    0.8390 c         1 MOL      0.555321
     56 O9         -5.2290    4.7980    1.4400 o         1 MOL     -0.555797
     57 H25        -1.0210    3.9220    0.8640 hn        1 MOL      0.108218
     58 H26        -2.8300    5.9460    1.8780 h1        1 MOL      0.122109
     59 H27        -2.8430    4.3800    2.4070 h1        1 MOL      0.122109
     60 N6         -4.1240    4.1160   -0.3810 n         1 MOL     -0.305949
     61 C19        -5.2360    3.5530   -1.1140 c3        1 MOL     -0.002975
     62 C20        -5.2620    1.9940   -1.1440 c         1 MOL      0.708253
     63 O10        -4.2100    1.3240   -1.1560 o         1 MOL     -0.635544
     64 C21        -5.1160    4.0820   -2.5520 c3        1 MOL     -0.378723
     65 C22        -5.1270    5.5830   -2.6330 c         1 MOL      0.736993
     66 N7         -4.4010    6.1550   -3.6190 n         1 MOL     -0.867783
     67 O11        -5.7920    6.3120   -1.8900 o         1 MOL     -0.518669
     68 H28        -3.2300    4.0180   -0.8460 hn        1 MOL      0.332988
     69 H29        -6.1460    3.9070   -0.6240 h1        1 MOL      0.060000
     70 H30        -6.0630    3.8490   -3.0510 hc        1 MOL      0.106300
     71 H31        -4.2690    3.6300   -3.0660 hc        1 MOL      0.106300
     72 H32        -3.8830    5.6500   -4.3240 hn        1 MOL      0.374709
     73 H33        -4.2440    7.1490   -3.7380 hn        1 MOL      0.374709
     74 N8         -6.4460    1.4290   -1.2880 n         1 MOL     -0.512634
     75 C23        -6.5740    0.0470   -1.8080 c3        1 MOL      0.021876
     76 C24        -6.2960   -0.9610   -0.7360 c         1 MOL      0.553843
     77 O12        -6.4520   -0.7150    0.4450 o         1 MOL     -0.497043
     78 H34        -7.2950    1.9420   -1.1330 hn        1 MOL      0.344010
     79 H35        -5.9970   -0.2820   -2.6730 h1        1 MOL      0.054188
     80 H36        -7.6110    0.0370   -2.1530 h1        1 MOL      0.054188
     81 N9         -5.6410   -2.0410   -1.1080 n         1 MOL     -0.642007
     82 C25        -4.9410   -2.9450   -0.2400 c3        1 MOL      0.447050
     83 C26        -3.8970   -2.2830    0.6840 c         1 MOL      0.163876
     84 O13        -3.5050   -1.1900    0.4220 o         1 MOL     -0.351758
     85 C27        -4.3270   -4.1610   -1.0120 c3        1 MOL     -0.230861
     86 C28        -5.4950   -5.0170   -1.5720 ca        1 MOL      0.065539
     87 C29        -6.0570   -4.7030   -2.8080 ca        1 MOL     -0.166642
     88 C30        -6.1170   -6.0250   -0.8200 ca        1 MOL     -0.166642
     89 C31        -7.1720   -5.4030   -3.2980 ca        1 MOL     -0.279221
     90 C32        -7.3200   -6.7340   -1.1890 ca        1 MOL     -0.279221
     91 C33        -7.7670   -6.4330   -2.5550 ca        1 MOL      0.375159
     92 O14        -8.8540   -7.0450   -3.0210 oh        1 MOL     -0.500632
     93 H37        -5.5880   -2.3610   -2.0650 hn        1 MOL      0.342741
     94 H38        -5.6010   -3.4650    0.4500 h1        1 MOL     -0.008657
     95 H39        -3.6400   -4.8200   -0.4820 hc        1 MOL      0.065970
     96 H40        -3.8110   -3.7700   -1.8950 hc        1 MOL      0.065970
     97 H41        -5.6280   -3.9370   -3.4510 ha        1 MOL      0.119683
     98 H42        -5.6020   -6.1890    0.1190 ha        1 MOL      0.119683
     99 H43        -7.6080   -5.1300   -4.2500 ha        1 MOL      0.169878
    100 H44        -7.7800   -7.5150   -0.6120 ha        1 MOL      0.169878
    101 H45        -9.1520   -7.7850   -2.4950 ho        1 MOL      0.394240
    102 N10        -3.6120   -3.0500    1.7230 n         1 MOL     -0.404507
    103 C34        -2.6400   -2.7610    2.7920 c3        1 MOL      0.061398
    104 C35        -1.2390   -2.4210    2.3800 c         1 MOL      0.319405
    105 O15        -0.9830   -1.5310    1.5490 o         1 MOL     -0.260531
    106 C36        -3.1820   -1.7230    3.8370 c3        1 MOL      0.345404
    107 C37        -2.5390   -1.8600    5.2310 c3        1 MOL     -0.221075
    108 C38        -4.7290   -1.7700    4.0240 c3        1 MOL     -0.373612
    109 C39        -2.9110   -3.0960    5.9950 c3        1 MOL     -0.134238
    110 H46        -4.1720   -3.8900    1.8010 hn        1 MOL      0.286010
    111 H47        -2.5770   -3.6810    3.3670 h1        1 MOL      0.030232
    112 H48        -2.8990   -0.7280    3.4890 hc        1 MOL     -0.054103
    113 H49        -2.8530   -1.0380    5.8890 hc        1 MOL      0.072057
    114 H50        -1.4540   -1.8850    5.1570 hc        1 MOL      0.072057
    115 H51        -5.1250   -1.2480    3.1530 hc        1 MOL      0.112319
    116 H52        -5.1180   -2.7790    4.1540 hc        1 MOL      0.112319
    117 H53        -5.0080   -1.1290    4.8620 hc        1 MOL      0.112319
    118 H54        -3.9770   -3.0890    6.1730 hc        1 MOL      0.037635
    119 H55        -2.5420   -4.0010    5.5140 hc        1 MOL      0.037635
    120 H56        -2.3930   -3.1130    6.9620 hc        1 MOL      0.037635
    121 N11        -0.1690   -2.9550    2.9760 n         1 MOL     -0.488032
    122 C40         1.2130   -2.3780    3.0540 c3        1 MOL      0.013624
    123 C41         1.9320   -2.1450    1.7050 c         1 MOL      0.339871
    124 O16         2.9970   -1.5050    1.6210 o         1 MOL     -0.503684
    125 C42         2.0940   -3.1300    4.0320 c3        1 MOL     -0.018563
    126 O17         1.4350   -3.4140    5.2490 oh        1 MOL     -0.581058
    127 H57        -0.3280   -3.7600    3.5570 hn        1 MOL      0.291851
    128 H58         0.9750   -1.4090    3.5020 h1        1 MOL      0.191556
    129 H59         2.9720   -2.5760    4.3540 h1        1 MOL      0.136020
    130 H60         2.3610   -4.0850    3.5670 h1        1 MOL      0.136020
    131 H61         0.8370   -4.1460    5.1140 ho        1 MOL      0.387355
    132 N12         1.4830   -2.7890    0.6490 n         1 MOL     -0.308171
    133 C43         2.2160   -2.6700   -0.6200 c3        1 MOL      0.014753
    134 C44         1.9380   -1.2450   -1.2200 c         1 MOL      0.866344
    135 O18         0.7880   -0.7740   -1.2030 o         1 MOL     -0.709541
    136 C45         1.7500   -3.8160   -1.5790 c3        1 MOL     -0.482126
    137 H62         0.5640   -3.1890    0.7150 hn        1 MOL      0.230533
    138 H63         3.2670   -2.8370   -0.3990 h1        1 MOL      0.160755
    139 H64         2.4190   -3.8240   -2.4410 hc        1 MOL      0.140751
    140 H65         1.8380   -4.7770   -1.0750 hc        1 MOL      0.140751
    141 H66         0.7450   -3.5380   -1.9020 hc        1 MOL      0.140751
    142 N13         2.9340   -0.5710   -1.8110 n         1 MOL     -0.830467
    143 C46         4.3560   -0.8560   -1.7640 c3        1 MOL      0.283686
    144 C47         4.8540   -2.0980   -2.5730 c         1 MOL      0.692876
    145 O19         4.2450   -2.4510   -3.5460 o         1 MOL     -0.581045
    146 C48         4.9900    0.5130   -2.2530 c3        1 MOL     -0.338140
    147 H67         2.5790    0.1350   -2.4530 hn        1 MOL      0.413657
    148 H68         4.6660   -0.9370   -0.7180 h1        1 MOL      0.082118
    149 H69         6.0570    0.4850   -2.0570 hc        1 MOL      0.092459
    150 H70         4.6730    0.6930   -3.2830 hc        1 MOL      0.092459
    151 H71         4.5060    1.3480   -1.7540 hc        1 MOL      0.092459
    152 N14         5.9710   -2.7230   -2.2140 n         1 MOL     -0.556874
    153 C49         6.7300   -2.7550   -0.9270 c3        1 MOL     -0.400430
    154 C50         6.8020   -4.1810   -0.2870 c         1 MOL      0.572651
    155 O20         6.5660   -4.3250    0.9630 o         1 MOL     -0.567279
    156 C51         8.1670   -2.1390   -1.0000 c3        1 MOL      0.344438
    157 C52         9.2100   -3.0100   -1.7270 c3        1 MOL     -0.364889
    158 C53         8.9430   -3.1790   -3.2390 c         1 MOL      0.758357
    159 O21         9.4200   -2.2900   -4.0650 o         1 MOL     -0.702706
    160 O22         8.3300   -4.1550   -3.6510 o         1 MOL     -0.702706
    161 H72         6.3770   -3.2850   -2.9450 hn        1 MOL      0.323766
    162 H73         6.1690   -2.1620   -0.2040 h1        1 MOL      0.112931
    163 H74         8.6320   -1.9570   -0.0350 hc        1 MOL     -0.038948
    164 H75         8.1870   -1.1340   -1.4350 hc        1 MOL     -0.038948
    165 H76         9.3280   -3.9660   -1.2280 hc        1 MOL      0.059676
    166 H77        10.1280   -2.4420   -1.5670 hc        1 MOL      0.059676
    167 N15         7.0640   -5.1750   -1.1100 n         1 MOL     -0.219278
    168 C54         7.0330   -6.6190   -0.7100 c3        1 MOL     -0.166658
    169 H78         6.1580   -6.8030   -0.0870 h1        1 MOL      0.081260
    170 H79         6.9790   -7.2430   -1.6030 h1        1 MOL      0.081260
    171 H80         7.9360   -6.8620   -0.1500 h1        1 MOL      0.081260
    172 H81         7.2050   -5.0530   -2.1040 hn        1 MOL      0.267913
    173 Ca1        -1.7160    0.1850   -0.7980 Ca        1 MOL      1.776814
    174 O23        -1.6830    0.2150   -3.3520 oh        1 MOL     -0.917035
    175 H82        -1.4820    1.1490   -3.4390 ho        1 MOL      0.429527
    176 H83        -1.2050   -0.1980   -4.0740 ho        1 MOL      0.429527
    177 O24        -1.6470   -2.2450   -1.6930 oh        1 MOL     -0.917035
    178 H84        -0.9320   -2.8740   -1.6120 ho        1 MOL      0.429527
    179 H85        -2.2470   -2.6360   -2.3240 ho        1 MOL      0.429527
@<TRIPOS>BOND
     1    1    2 1   
     2    1    4 1   
     3    1    5 1   
     4    1    6 1   
     5    2    3 2   
     6    2    7 1   
     7    7    8 1   
     8    7   15 1   
     9    8    9 1   
    10    8   11 1   
    11    8   16 1   
    12    9   10 2   
    13    9   19 1   
    14   11   12 1   
    15   11   17 1   
    16   11   18 1   
    17   12   13 1   
    18   12   14 1   
    19   19   20 1   
    20   19   28 1   
    21   20   21 1   
    22   20   23 1   
    23   20   29 1   
    24   21   22 2   
    25   21   41 1   
    26   23   24 1   
    27   23   30 1   
    28   23   31 1   
    29   24   25 1   
    30   24   32 1   
    31   24   33 1   
    32   25   26 1   
    33   25   34 1   
    34   25   35 1   
    35   26   27 1   
    36   26   36 1   
    37   26   37 1   
    38   27   38 1   
    39   27   39 1   
    40   27   40 1   
    41   41   42 1   
    42   41   49 1   
    43   42   43 1   
    44   42   45 1   
    45   42   50 1   
    46   43   44 2   
    47   43   53 1   
    48   45   46 1   
    49   45   51 1   
    50   45   52 1   
    51   46   47 1   
    52   46   48 1   
    53   53   54 1   
    54   53   57 1   
    55   54   55 1   
    56   54   58 1   
    57   54   59 1   
    58   55   56 2   
    59   55   60 1   
    60   60   61 1   
    61   60   68 1   
    62   61   62 1   
    63   61   64 1   
    64   61   69 1   
    65   62   63 2   
    66   62   74 1   
    67   64   65 1   
    68   64   70 1   
    69   64   71 1   
    70   65   66 1   
    71   65   67 2   
    72   66   72 1   
    73   66   73 1   
    74   74   75 1   
    75   74   78 1   
    76   75   76 1   
    77   75   79 1   
    78   75   80 1   
    79   76   77 2   
    80   76   81 1   
    81   81   82 1   
    82   81   93 1   
    83   82   83 1   
    84   82   85 1   
    85   82   94 1   
    86   83   84 2   
    87   83  102 1   
    88   85   86 1   
    89   85   95 1   
    90   85   96 1   
    91   86   87 ar  
    92   86   88 ar  
    93   87   89 ar  
    94   87   97 1   
    95   88   90 ar  
    96   88   98 1   
    97   89   91 ar  
    98   89   99 1   
    99   90   91 ar  
   100   90  100 1   
   101   91   92 1   
   102   92  101 1   
   103  102  103 1   
   104  102  110 1   
   105  103  104 1   
   106  103  106 1   
   107  103  111 1   
   108  104  105 2   
   109  104  121 1   
   110  106  107 1   
   111  106  108 1   
   112  106  112 1   
   113  107  109 1   
   114  107  113 1   
   115  107  114 1   
   116  108  115 1   
   117  108  116 1   
   118  108  117 1   
   119  109  118 1   
   120  109  119 1   
   121  109  120 1   
   122  121  122 1   
   123  121  127 1   
   124  122  123 1   
   125  122  125 1   
   126  122  128 1   
   127  123  124 2   
   128  123  132 1   
   129  125  126 1   
   130  125  129 1   
   131  125  130 1   
   132  126  131 1   
   133  132  133 1   
   134  132  137 1   
   135  133  134 1   
   136  133  136 1   
   137  133  138 1   
   138  134  135 2   
   139  134  142 1   
   140  136  139 1   
   141  136  140 1   
   142  136  141 1   
   143  142  143 1   
   144  142  147 1   
   145  143  144 1   
   146  143  146 1   
   147  143  148 1   
   148  144  145 2   
   149  144  152 1   
   150  146  149 1   
   151  146  150 1   
   152  146  151 1   
   153  152  153 1   
   154  152  161 1   
   155  153  154 1   
   156  153  156 1   
   157  153  162 1   
   158  154  155 2   
   159  154  167 1   
   160  156  157 1   
   161  156  163 1   
   162  156  164 1   
   163  157  158 1   
   164  157  165 1   
   165  157  166 1   
   166  158  159 1   
   167  158  160 1   
   168  167  168 1   
   169  167  172 1   
   170  168  169 1   
   171  168  170 1   
   172  168  171 1   
   173  174  175 1   
   174  174  176 1   
   175  177  178 1   
   176  177  179 1   
@<TRIPOS>SUBSTRUCTURE
     1 MOL         1 TEMP              0 ****  ****    0 ROOT
