@<TRIPOS>MOLECULE
MOL
  194   186     1     0     0
SMALL
resp


@<TRIPOS>ATOM
      1 C1          1.6250    1.4340    2.4010 c3        1 MOL     -0.365167
      2 C2          3.0160    1.7400    1.9420 c         1 MOL      0.774386
      3 O1          3.1540    2.6560    1.1460 o         1 MOL     -0.548277
      4 H1          0.9090    1.8810    1.7110 hc        1 MOL      0.090265
      5 H2          1.4780    0.3540    2.4270 hc        1 MOL      0.090265
      6 H3          1.4710    1.8460    3.3980 hc        1 MOL      0.090265
      7 N1          3.9820    1.0080    2.4240 n         1 MOL     -0.591652
      8 C3          5.3790    1.2160    2.1850 c3        1 MOL      0.018773
      9 C4          6.2240   -0.0150    1.7940 c         1 MOL      0.643920
     10 O2          7.2090    0.1240    1.1000 o         1 MOL     -0.461322
     11 C5          5.9000    1.9860    3.4370 c3        1 MOL     -0.152641
     12 C6          5.6550    1.2100    4.7560 c         1 MOL      0.801612
     13 O3          4.9880    0.1840    4.8470 o         1 MOL     -0.736195
     14 O4          6.2130    1.6170    5.8200 o         1 MOL     -0.736195
     15 H4          3.8390    0.2570    3.0840 hn        1 MOL      0.284642
     16 H5          5.4900    1.8830    1.3390 h1        1 MOL      0.081065
     17 H6          5.4580    2.9770    3.5830 hc        1 MOL      0.061414
     18 H7          6.9920    2.0170    3.4480 hc        1 MOL      0.061414
     19 N2          5.9050   -1.1960    2.3330 n         1 MOL     -0.507104
     20 C7          6.5860   -2.5160    2.2510 c3        1 MOL      0.146934
     21 C8          7.0910   -2.8520    0.8540 c         1 MOL      0.486520
     22 O5          8.2390   -3.2700    0.5690 o         1 MOL     -0.514014
     23 C9          7.6910   -2.6470    3.2790 c3        1 MOL     -0.140643
     24 C10         7.4270   -2.1320    4.7420 c3        1 MOL     -0.014835
     25 C11         6.4160   -3.0040    5.5390 c3        1 MOL      0.052015
     26 C12         6.3160   -2.6200    6.9560 c3        1 MOL     -0.078697
     27 N3          5.8460   -1.2960    7.1800 n4        1 MOL     -0.180159
     28 H8          5.2000   -1.2000    3.0510 hn        1 MOL      0.273700
     29 H9          5.9170   -3.3290    2.5160 h1        1 MOL      0.014812
     30 H10         8.5600   -2.1290    2.8920 hc        1 MOL      0.059603
     31 H11         8.0540   -3.6730    3.3730 hc        1 MOL      0.059603
     32 H12         6.9910   -1.1360    4.6890 hc        1 MOL      0.022231
     33 H13         8.3320   -2.0850    5.3490 hc        1 MOL      0.022231
     34 H14         6.6160   -4.0670    5.4350 hc        1 MOL      0.023643
     35 H15         5.4460   -2.9080    5.0580 hc        1 MOL      0.023643
     36 H16         7.2700   -2.8140    7.4330 hx        1 MOL      0.072154
     37 H17         5.5580   -3.3370    7.2720 hx        1 MOL      0.072154
     38 H18         5.4880   -1.2420    8.1190 hn        1 MOL      0.278031
     39 H19         6.6490   -0.6930    7.2700 hn        1 MOL      0.278031
     40 H20         5.3090   -0.8730    6.4440 hn        1 MOL      0.278031
     41 N4          6.2220   -2.4550   -0.1130 n         1 MOL     -0.519398
     42 C13         6.3860   -2.4590   -1.5790 c3        1 MOL      0.590975
     43 C14         5.8340   -1.1840   -2.1800 c         1 MOL      0.266098
     44 O6          5.2470   -1.2790   -3.2510 o         1 MOL     -0.471979
     45 C15         5.9670   -3.7670   -2.1080 c3        1 MOL     -0.322899
     46 C16         4.5610   -4.1370   -1.7140 c         1 MOL      0.717257
     47 O7          3.7150   -3.2810   -1.4330 o         1 MOL     -0.746774
     48 O8          4.1740   -5.3300   -1.7320 o         1 MOL     -0.746774
     49 H21         5.3050   -2.1390    0.1790 hn        1 MOL      0.242597
     50 H22         7.4160   -2.4650   -1.9270 h1        1 MOL     -0.026549
     51 H23         6.5130   -4.5690   -1.6020 hc        1 MOL      0.063868
     52 H24         6.1300   -3.8200   -3.1880 hc        1 MOL      0.063868
     53 N5          5.8240   -0.0680   -1.3760 n         1 MOL     -0.151312
     54 C17         5.5210    1.2870   -1.8990 c3        1 MOL     -0.164168
     55 C18         6.5060    1.8100   -2.9620 c         1 MOL      0.684814
     56 O9          7.5610    1.2790   -3.1920 o         1 MOL     -0.515751
     57 H25         6.1240   -0.1700   -0.4170 hn        1 MOL      0.020259
     58 H26         5.5320    1.8450   -0.9580 h1        1 MOL      0.104503
     59 H27         4.5060    1.3780   -2.3040 h1        1 MOL      0.104503
     60 N6          6.0850    2.8750   -3.7100 n         1 MOL     -0.742016
     61 C19         4.9720    3.7920   -3.4200 c3        1 MOL      0.353428
     62 C20         5.0300    4.3580   -1.9680 c         1 MOL      0.540746
     63 O10         6.1180    4.8080   -1.5720 o         1 MOL     -0.560345
     64 C21         5.0120    4.8850   -4.3700 c3        1 MOL     -0.371238
     65 C22         4.5550    4.4530   -5.7790 c         1 MOL      0.652764
     66 N7          5.4320    3.8110   -6.4990 n         1 MOL     -0.717092
     67 O11         3.4460    4.6970   -6.1990 o         1 MOL     -0.553908
     68 H28         6.7520    3.2760   -4.3600 hn        1 MOL      0.349370
     69 H29         4.0240    3.2660   -3.4560 h1        1 MOL      0.014292
     70 H30         6.0200    5.2830   -4.3840 hc        1 MOL      0.108054
     71 H31         4.4330    5.7250   -3.9740 hc        1 MOL      0.108054
     72 H32         6.4230    3.7790   -6.3110 hn        1 MOL      0.344329
     73 H33         5.1230    3.6350   -7.4460 hn        1 MOL      0.344329
     74 N8          3.9860    4.4510   -1.1310 n         1 MOL     -0.501966
     75 C23         2.6120    4.0140   -1.4910 c3        1 MOL     -0.009092
     76 C24         1.5220    4.5990   -0.6710 c         1 MOL      0.657309
     77 O12         1.8930    5.4340    0.2210 o         1 MOL     -0.552384
     78 H34         3.9990    4.8210   -0.1950 hn        1 MOL      0.338776
     79 H35         2.5810    2.9470   -1.2530 h1        1 MOL      0.029503
     80 H36         2.4420    4.2160   -2.5430 h1        1 MOL      0.029503
     81 N9          0.2660    4.2360   -0.8570 n         1 MOL     -0.644464
     82 C25        -0.8890    4.8230   -0.1650 c3        1 MOL      0.258523
     83 C26        -1.9100    3.6910    0.1980 c         1 MOL      0.529557
     84 O13        -1.8190    2.5800   -0.4050 o         1 MOL     -0.521281
     85 C27        -1.5160    5.8830   -1.0260 c3        1 MOL     -0.236129
     86 C28        -2.5300    6.8320   -0.3790 ca        1 MOL      0.052108
     87 C29        -3.9160    6.9060   -0.7200 ca        1 MOL     -0.095312
     88 C30        -2.0110    7.6130    0.6700 ca        1 MOL     -0.095312
     89 C31        -4.7440    7.8380   -0.0170 ca        1 MOL     -0.337444
     90 C32        -2.7930    8.5150    1.3450 ca        1 MOL     -0.337444
     91 C33        -4.1310    8.6590    0.9870 ca        1 MOL      0.365465
     92 O14        -4.9420    9.4500    1.7380 oh        1 MOL     -0.462752
     93 H37         0.1030    3.5370   -1.5660 hn        1 MOL      0.333441
     94 H38        -0.5020    5.2850    0.7390 h1        1 MOL      0.017881
     95 H39        -1.8630    5.5880   -2.0190 hc        1 MOL      0.091210
     96 H40        -0.6960    6.5920   -1.1630 hc        1 MOL      0.091210
     97 H41        -4.3440    6.3260   -1.5200 ha        1 MOL      0.131668
     98 H42        -0.9770    7.5020    0.9650 ha        1 MOL      0.131668
     99 H43        -5.7270    8.1080   -0.3700 ha        1 MOL      0.173119
    100 H44        -2.4610    8.9220    2.2870 ha        1 MOL      0.173119
    101 H45        -4.3900    9.7090    2.4830 ho        1 MOL      0.335184
    102 N10        -2.7850    4.0250    1.1290 n         1 MOL     -0.402746
    103 C34        -3.9090    3.2500    1.5160 c3        1 MOL     -0.043670
    104 C35        -4.7370    3.0730    0.2600 c         1 MOL      0.450497
    105 O15        -4.8500    3.9580   -0.6000 o         1 MOL     -0.479943
    106 C36        -4.7060    4.0030    2.7530 c3        1 MOL      0.220469
    107 C37        -5.8930    3.1430    3.1660 c3        1 MOL      0.093542
    108 C38        -3.7370    4.1570    3.8750 c3        1 MOL     -0.339320
    109 C39        -6.9490    3.7770    4.0840 c3        1 MOL     -0.189631
    110 H46        -2.7460    4.9610    1.4810 hn        1 MOL      0.234652
    111 H47        -3.6730    2.2280    1.7970 h1        1 MOL      0.071569
    112 H48        -5.0980    4.9280    2.3260 hc        1 MOL      0.013555
    113 H49        -5.4620    2.2800    3.6600 hc        1 MOL     -0.010167
    114 H50        -6.3550    2.8640    2.2240 hc        1 MOL     -0.010167
    115 H51        -4.2560    4.4850    4.7850 hc        1 MOL      0.082211
    116 H52        -3.3150    3.1550    3.9710 hc        1 MOL      0.082211
    117 H53        -2.9240    4.8410    3.6630 hc        1 MOL      0.082211
    118 H54        -7.9710    3.6270    3.7580 hc        1 MOL      0.047254
    119 H55        -6.8830    3.2330    5.0250 hc        1 MOL      0.047254
    120 H56        -6.7990    4.8580    4.1630 hc        1 MOL      0.047254
    121 N11        -5.4020    1.9320    0.0720 n         1 MOL     -0.425109
    122 C40        -6.1070    1.6060   -1.1740 c3        1 MOL      0.315330
    123 C41        -6.0070    0.0800   -1.5170 c         1 MOL      0.386189
    124 O16        -5.7670   -0.8280   -0.6630 o         1 MOL     -0.437725
    125 C42        -7.5340    2.0910   -1.1190 c3        1 MOL      0.138243
    126 O17        -8.5470    1.2660   -0.5720 oh        1 MOL     -0.592305
    127 H57        -5.3410    1.1960    0.7650 hn        1 MOL      0.237378
    128 H58        -5.6140    2.1370   -1.9940 h1        1 MOL     -0.009271
    129 H59        -7.8550    2.2930   -2.1430 h1        1 MOL      0.004407
    130 H60        -7.4020    3.0130   -0.5700 h1        1 MOL      0.004407
    131 H61        -9.4100    1.5280   -0.8980 ho        1 MOL      0.418174
    132 N12        -6.4720   -0.2810   -2.7210 n         1 MOL     -0.399047
    133 C43        -6.5420   -1.5400   -3.4650 c3        1 MOL      0.077720
    134 C44        -7.5490   -2.5510   -2.8080 c         1 MOL      0.438378
    135 O18        -7.4750   -3.7580   -3.1360 o         1 MOL     -0.475834
    136 C45        -5.0550   -2.1020   -3.6760 c3        1 MOL     -0.468228
    137 H62        -6.8210    0.4910   -3.2820 hn        1 MOL      0.262415
    138 H63        -6.8990   -1.3270   -4.4650 h1        1 MOL      0.089861
    139 H64        -4.7780   -2.6700   -2.7760 hc        1 MOL      0.160759
    140 H65        -5.2330   -2.8980   -4.3890 hc        1 MOL      0.160759
    141 H66        -4.3080   -1.3440   -3.9050 hc        1 MOL      0.160759
    142 N13        -8.3820   -2.0590   -1.8850 n         1 MOL     -0.453275
    143 C46        -9.2610   -2.8800   -0.9460 c3        1 MOL      0.301500
    144 C47        -8.4430   -3.6830    0.1600 c         1 MOL      0.301316
    145 O19        -8.8550   -4.7030    0.6480 o         1 MOL     -0.450025
    146 C48       -10.2380   -3.8520   -1.6300 c3        1 MOL     -0.371531
    147 H67        -8.3890   -1.0560   -1.7470 hn        1 MOL      0.215649
    148 H68        -9.8460   -2.1140   -0.4340 h1        1 MOL      0.007840
    149 H69       -10.9570   -4.1470   -0.8690 hc        1 MOL      0.109035
    150 H70       -10.7660   -3.3560   -2.4390 hc        1 MOL      0.109035
    151 H71        -9.7280   -4.7670   -1.9300 hc        1 MOL      0.109035
    152 N14        -7.1470   -3.2420    0.3410 n         1 MOL     -0.194383
    153 C49        -6.1280   -3.8440    1.2190 c3        1 MOL     -0.091148
    154 C50        -6.5900   -3.9120    2.6860 c         1 MOL      0.478631
    155 O20        -6.5650   -5.0020    3.2690 o         1 MOL     -0.488458
    156 C51        -4.7540   -3.1720    0.9920 c3        1 MOL      0.244011
    157 C52        -3.5580   -3.6880    1.7490 c3        1 MOL     -0.200796
    158 C53        -3.2310   -5.1230    1.3100 c         1 MOL      0.567817
    159 O21        -3.1460   -6.0190    2.1970 o         1 MOL     -0.680681
    160 O22        -3.0560   -5.4020    0.1520 o         1 MOL     -0.680681
    161 H72        -6.9100   -2.3780   -0.1240 hn        1 MOL      0.157552
    162 H73        -5.9540   -4.8830    0.9590 h1        1 MOL      0.177979
    163 H74        -4.9120   -2.1130    1.1940 hc        1 MOL     -0.070164
    164 H75        -4.6080   -3.2940   -0.0880 hc        1 MOL     -0.070164
    165 H76        -3.7650   -3.6270    2.8160 hc        1 MOL      0.013213
    166 H77        -2.7090   -3.0440    1.5230 hc        1 MOL      0.013213
    167 N15        -7.1290   -2.7970    3.1730 n         1 MOL     -0.298931
    168 C54        -7.9420   -2.8210    4.3410 c3        1 MOL     -0.120239
    169 H78        -8.9660   -2.5550    4.0750 h1        1 MOL      0.070032
    170 H79        -7.9270   -3.8210    4.7750 h1        1 MOL      0.070032
    171 H80        -7.5580   -2.1040    5.0670 h1        1 MOL      0.070032
    172 H81        -7.2230   -1.9830    2.5740 hn        1 MOL      0.211915
    173 Ca1         1.6540   -4.8600   -2.0120 Ca        1 MOL      1.780494
    174 O23         2.4910   -6.1390    0.2800 oh        1 MOL     -0.827558
    175 H82         2.6200   -5.5230    1.0100 ho        1 MOL      0.411909
    176 H83         3.0090   -6.9090    0.5350 ho        1 MOL      0.411909
    177 O24         0.6110   -2.7320   -0.7860 oh        1 MOL     -0.827558
    178 H84         0.5280   -2.5870    0.1470 ho        1 MOL      0.411909
    179 H85        -0.2720   -2.9430   -1.0760 ho        1 MOL      0.411909
    180 O25         1.7080   -7.6110   -2.2410 oh        1 MOL     -0.827558
    181 H86         1.7830   -8.4030   -1.7120 ho        1 MOL      0.411909
    182 H87         1.8530   -7.9100   -3.1420 ho        1 MOL      0.411909
    183 O26         1.7470   -2.7670   -3.7120 oh        1 MOL     -0.827558
    184 H88         1.5860   -1.8220   -3.6390 ho        1 MOL      0.411909
    185 H89         2.1560   -2.8810   -4.5670 ho        1 MOL      0.411909
    186 O27         2.4620   -5.6650   -4.4810 oh        1 MOL     -0.827558
    187 H90         2.0960   -6.5230   -4.7170 ho        1 MOL      0.411909
    188 H91         3.2360   -5.5740   -5.0520 ho        1 MOL      0.411909
    189 O28        -0.9350   -5.7410   -3.4120 oh        1 MOL     -0.827558
    190 H92        -1.2540   -6.6420   -3.2800 ho        1 MOL      0.411909
    191 H93        -1.6100   -5.3220   -3.9470 ho        1 MOL      0.411909
    192 O29        -0.3330   -5.5880   -0.4350 oh        1 MOL     -0.827558
    193 H94         0.2350   -6.1780    0.0530 ho        1 MOL      0.411909
    194 H95        -1.2160   -5.9490   -0.3060 ho        1 MOL      0.411909
@<TRIPOS>BOND
     1    1    2 1   
     2    1    4 1   
     3    1    5 1   
     4    1    6 1   
     5    2    3 2   
     6    2    7 1   
     7    7    8 1   
     8    7   15 1   
     9    8    9 1   
    10    8   11 1   
    11    8   16 1   
    12    9   10 2   
    13    9   19 1   
    14   11   12 1   
    15   11   17 1   
    16   11   18 1   
    17   12   13 1   
    18   12   14 1   
    19   19   20 1   
    20   19   28 1   
    21   20   21 1   
    22   20   23 1   
    23   20   29 1   
    24   21   22 2   
    25   21   41 1   
    26   23   24 1   
    27   23   30 1   
    28   23   31 1   
    29   24   25 1   
    30   24   32 1   
    31   24   33 1   
    32   25   26 1   
    33   25   34 1   
    34   25   35 1   
    35   26   27 1   
    36   26   36 1   
    37   26   37 1   
    38   27   38 1   
    39   27   39 1   
    40   27   40 1   
    41   41   42 1   
    42   41   49 1   
    43   42   43 1   
    44   42   45 1   
    45   42   50 1   
    46   43   44 2   
    47   43   53 1   
    48   45   46 1   
    49   45   51 1   
    50   45   52 1   
    51   46   47 1   
    52   46   48 1   
    53   53   54 1   
    54   53   57 1   
    55   54   55 1   
    56   54   58 1   
    57   54   59 1   
    58   55   56 2   
    59   55   60 1   
    60   60   61 1   
    61   60   68 1   
    62   61   62 1   
    63   61   64 1   
    64   61   69 1   
    65   62   63 2   
    66   62   74 1   
    67   64   65 1   
    68   64   70 1   
    69   64   71 1   
    70   65   66 1   
    71   65   67 2   
    72   66   72 1   
    73   66   73 1   
    74   74   75 1   
    75   74   78 1   
    76   75   76 1   
    77   75   79 1   
    78   75   80 1   
    79   76   77 2   
    80   76   81 1   
    81   81   82 1   
    82   81   93 1   
    83   82   83 1   
    84   82   85 1   
    85   82   94 1   
    86   83   84 2   
    87   83  102 1   
    88   85   86 1   
    89   85   95 1   
    90   85   96 1   
    91   86   87 ar  
    92   86   88 ar  
    93   87   89 ar  
    94   87   97 1   
    95   88   90 ar  
    96   88   98 1   
    97   89   91 ar  
    98   89   99 1   
    99   90   91 ar  
   100   90  100 1   
   101   91   92 1   
   102   92  101 1   
   103  102  103 1   
   104  102  110 1   
   105  103  104 1   
   106  103  106 1   
   107  103  111 1   
   108  104  105 2   
   109  104  121 1   
   110  106  107 1   
   111  106  108 1   
   112  106  112 1   
   113  107  109 1   
   114  107  113 1   
   115  107  114 1   
   116  108  115 1   
   117  108  116 1   
   118  108  117 1   
   119  109  118 1   
   120  109  119 1   
   121  109  120 1   
   122  121  122 1   
   123  121  127 1   
   124  122  123 1   
   125  122  125 1   
   126  122  128 1   
   127  123  124 2   
   128  123  132 1   
   129  125  126 1   
   130  125  129 1   
   131  125  130 1   
   132  126  131 1   
   133  132  133 1   
   134  132  137 1   
   135  133  134 1   
   136  133  136 1   
   137  133  138 1   
   138  134  135 2   
   139  134  142 1   
   140  136  139 1   
   141  136  140 1   
   142  136  141 1   
   143  142  143 1   
   144  142  147 1   
   145  143  144 1   
   146  143  146 1   
   147  143  148 1   
   148  144  145 2   
   149  144  152 1   
   150  146  149 1   
   151  146  150 1   
   152  146  151 1   
   153  152  153 1   
   154  152  161 1   
   155  153  154 1   
   156  153  156 1   
   157  153  162 1   
   158  154  155 2   
   159  154  167 1   
   160  156  157 1   
   161  156  163 1   
   162  156  164 1   
   163  157  158 1   
   164  157  165 1   
   165  157  166 1   
   166  158  159 1   
   167  158  160 1   
   168  167  168 1   
   169  167  172 1   
   170  168  169 1   
   171  168  170 1   
   172  168  171 1   
   173  174  175 1   
   174  174  176 1   
   175  177  178 1   
   176  177  179 1   
   177  180  181 1   
   178  180  182 1   
   179  183  184 1   
   180  183  185 1   
   181  186  187 1   
   182  186  188 1   
   183  189  190 1   
   184  189  191 1   
   185  192  193 1   
   186  192  194 1   
@<TRIPOS>SUBSTRUCTURE
     1 MOL         1 TEMP              0 ****  ****    0 ROOT
