@<TRIPOS>MOLECULE
MOL
  188   182     1     0     0
SMALL
resp


@<TRIPOS>ATOM
      1 C1          3.7380    0.2530    5.8170 c3        1 MOL     -0.496637
      2 C2          3.1790   -0.2450    4.4680 c         1 MOL      0.713009
      3 O1          2.3170   -1.1510    4.4870 o         1 MOL     -0.621817
      4 H1          4.3630   -0.5220    6.2600 hc        1 MOL      0.126812
      5 H2          4.3350    1.1520    5.6550 hc        1 MOL      0.126812
      6 H3          2.9120    0.4820    6.4910 hc        1 MOL      0.126812
      7 N1          3.5610    0.3700    3.4110 n         1 MOL     -0.433972
      8 C3          3.0960    0.1260    2.0400 c3        1 MOL      0.026885
      9 C4          3.5360   -1.3130    1.5380 c         1 MOL      0.291155
     10 O2          2.8570   -1.9620    0.7210 o         1 MOL     -0.598849
     11 C5          3.7530    1.1540    1.0800 c3        1 MOL     -0.067996
     12 C6          5.2760    1.2180    1.2400 c         1 MOL      0.761662
     13 O3          6.0300    0.4190    0.6400 o         1 MOL     -0.689143
     14 O4          5.7180    1.9420    2.1090 o         1 MOL     -0.689143
     15 H4          4.1960    1.1520    3.5490 hn        1 MOL      0.252356
     16 H5          2.0030    0.1010    1.9600 h1        1 MOL      0.107268
     17 H6          3.3120    2.1350    1.2500 hc        1 MOL     -0.014704
     18 H7          3.4910    0.9290    0.0430 hc        1 MOL     -0.014704
     19 N2          4.6970   -1.8120    1.9280 n         1 MOL     -0.015090
     20 C7          5.0190   -3.2580    1.7800 c3        1 MOL      0.182732
     21 C8          5.9500   -3.4450    0.5610 c         1 MOL      0.366117
     22 O5          7.0010   -4.0620    0.6710 o         1 MOL     -0.540697
     23 C9          5.7200   -3.9070    3.0750 c3        1 MOL     -0.254888
     24 C10         4.7170   -3.9700    4.2320 c3        1 MOL      0.048441
     25 C11         5.3690   -4.5120    5.5240 c3        1 MOL     -0.068217
     26 C12         5.9620   -5.9180    5.3320 c3        1 MOL      0.132278
     27 N3          6.6750   -6.3110    6.5940 n4        1 MOL     -0.509528
     28 H8          5.3650   -1.1830    2.3400 hn        1 MOL      0.180810
     29 H9          4.0750   -3.7900    1.6710 h1        1 MOL      0.044529
     30 H10         6.5710   -3.2460    3.2830 hc        1 MOL      0.070652
     31 H11         6.0350   -4.9160    2.8310 hc        1 MOL      0.070652
     32 H12         3.9420   -4.6930    3.9790 hc        1 MOL      0.012419
     33 H13         4.3680   -2.9520    4.3820 hc        1 MOL      0.012419
     34 H14         4.5800   -4.5940    6.2790 hc        1 MOL      0.033164
     35 H15         6.0930   -3.8250    5.9530 hc        1 MOL      0.033164
     36 H16         6.6480   -6.0570    4.4980 hx        1 MOL      0.080890
     37 H17         5.2580   -6.7120    5.1110 hx        1 MOL      0.080890
     38 H18         6.8600   -7.3040    6.6250 hn        1 MOL      0.357598
     39 H19         7.5840   -5.9350    6.8070 hn        1 MOL      0.357598
     40 H20         5.9960   -6.0920    7.3050 hn        1 MOL      0.357598
     41 N4          5.5370   -2.8940   -0.5830 n         1 MOL     -0.220048
     42 C13         6.1330   -3.0330   -1.8970 c3        1 MOL      0.094002
     43 C14         6.2220   -1.5790   -2.5960 c         1 MOL      0.345017
     44 O6          6.3520   -1.4870   -3.8450 o         1 MOL     -0.529240
     45 C15         5.3760   -4.0860   -2.6910 c3        1 MOL     -0.293876
     46 C16         3.8630   -3.9450   -2.8250 c         1 MOL      0.850733
     47 O7          3.1520   -3.1990   -2.1380 o         1 MOL     -0.754462
     48 O8          3.3540   -4.7650   -3.6560 o         1 MOL     -0.754462
     49 H21         4.5550   -2.6690   -0.5300 hn        1 MOL      0.187813
     50 H22         7.1510   -3.3080   -1.6040 h1        1 MOL      0.073326
     51 H23         5.5580   -5.0860   -2.2960 hc        1 MOL      0.083066
     52 H24         5.8690   -4.0080   -3.6580 hc        1 MOL      0.083066
     53 N5          5.9550   -0.5390   -1.8310 n         1 MOL     -0.149408
     54 C17         5.6780    0.7870   -2.4380 c3        1 MOL     -0.046979
     55 C18         6.9890    1.5580   -2.7430 c         1 MOL      0.633753
     56 O9          8.0760    1.0570   -2.6790 o         1 MOL     -0.519629
     57 H25         5.8590   -0.7040   -0.8370 hn        1 MOL      0.141158
     58 H26         5.0670    1.2890   -1.6940 h1        1 MOL      0.048234
     59 H27         5.0380    0.6240   -3.2980 h1        1 MOL      0.048234
     60 N6          6.8060    2.8190   -3.0700 n         1 MOL     -0.594974
     61 C19         5.5960    3.6350   -2.8780 c3        1 MOL      0.328530
     62 C20         5.4650    3.8040   -1.3360 c         1 MOL      0.431241
     63 O10         6.5430    4.0740   -0.7890 o         1 MOL     -0.516560
     64 C21         5.7040    4.9170   -3.7170 c3        1 MOL     -0.473302
     65 C22         5.7800    4.7940   -5.2340 c         1 MOL      0.719656
     66 N7          6.7070    5.5030   -5.8520 n         1 MOL     -0.734855
     67 O11         5.0550    4.1380   -5.8840 o         1 MOL     -0.538001
     68 H28         7.6420    3.3790   -3.1660 hn        1 MOL      0.328124
     69 H29         4.6500    3.1650   -3.1500 h1        1 MOL     -0.025230
     70 H30         6.6320    5.4230   -3.4340 hc        1 MOL      0.116934
     71 H31         4.8940    5.5640   -3.3780 hc        1 MOL      0.116934
     72 H32         7.2850    6.2080   -5.4100 hn        1 MOL      0.334751
     73 H33         6.5190    5.6720   -6.8370 hn        1 MOL      0.334751
     74 N8          4.3480    3.8630   -0.6930 n         1 MOL     -0.218101
     75 C23         3.0170    3.7750   -1.2470 c3        1 MOL     -0.177384
     76 C24         1.9150    4.0910   -0.1570 c         1 MOL      0.681380
     77 O12         2.2830    4.4950    0.9440 o         1 MOL     -0.510562
     78 H34         4.3340    4.1110    0.2780 hn        1 MOL      0.218744
     79 H35         2.7520    2.9110   -1.8510 h1        1 MOL      0.080099
     80 H36         2.9590    4.6580   -1.8910 h1        1 MOL      0.080099
     81 N9          0.6290    3.9420   -0.3590 n         1 MOL     -0.742398
     82 C25        -0.3630    4.2690    0.6380 c3        1 MOL      0.396251
     83 C26        -1.6300    3.3800    0.6590 c         1 MOL      0.406741
     84 O13        -1.6820    2.3840   -0.1010 o         1 MOL     -0.476905
     85 C27        -0.7720    5.7250    0.3920 c3        1 MOL     -0.182201
     86 C28        -1.5930    6.4620    1.3970 ca        1 MOL      0.029928
     87 C29        -2.9890    6.6630    1.0970 ca        1 MOL     -0.110844
     88 C30        -1.0100    7.0980    2.5150 ca        1 MOL     -0.110844
     89 C31        -3.8080    7.3670    1.9590 ca        1 MOL     -0.310099
     90 C32        -1.8770    7.8350    3.2910 ca        1 MOL     -0.310099
     91 C33        -3.3160    7.9760    3.1190 ca        1 MOL      0.392753
     92 O14        -4.0850    8.6050    3.9660 oh        1 MOL     -0.468210
     93 H37         0.4040    3.7280   -1.3130 hn        1 MOL      0.355137
     94 H38         0.0960    4.2640    1.6350 h1        1 MOL      0.009681
     95 H39        -1.2180    5.6960   -0.6020 hc        1 MOL      0.065998
     96 H40         0.1390    6.3170    0.2930 hc        1 MOL      0.065998
     97 H41        -3.4030    6.2930    0.1660 ha        1 MOL      0.137962
     98 H42         0.0470    7.0920    2.7230 ha        1 MOL      0.137962
     99 H43        -4.8360    7.5410    1.6810 ha        1 MOL      0.136404
    100 H44        -1.4210    8.3280    4.1320 ha        1 MOL      0.136404
    101 H45        -3.6580    8.7840    4.8090 ho        1 MOL      0.369981
    102 N10        -2.5250    3.5250    1.6350 n         1 MOL     -0.394882
    103 C34        -3.7090    2.6140    1.6870 c3        1 MOL     -0.046655
    104 C35        -4.5810    2.8220    0.4020 c         1 MOL      0.499593
    105 O15        -4.5670    3.8820   -0.2090 o         1 MOL     -0.481969
    106 C36        -4.6090    2.8140    3.0020 c3        1 MOL     -0.016811
    107 C37        -3.9180    2.2810    4.2480 c3        1 MOL     -0.074660
    108 C38        -4.8440    4.3500    3.0840 c3        1 MOL      0.073205
    109 C39        -4.6930    2.2920    5.5630 c3        1 MOL     -0.143995
    110 H46        -2.4300    4.2700    2.3130 hn        1 MOL      0.234711
    111 H47        -3.3090    1.6030    1.6580 h1        1 MOL      0.098440
    112 H48        -5.5380    2.2570    2.8650 hc        1 MOL      0.055292
    113 H49        -2.9470    2.7540    4.3830 hc        1 MOL      0.048380
    114 H50        -3.5140    1.3000    3.9850 hc        1 MOL      0.048380
    115 H51        -5.5390    4.6470    3.8720 hc        1 MOL      0.002796
    116 H52        -3.9100    4.8950    3.2720 hc        1 MOL      0.002796
    117 H53        -5.3870    4.7720    2.2330 hc        1 MOL      0.002796
    118 H54        -5.0330    3.3180    5.7330 hc        1 MOL      0.041513
    119 H55        -5.6040    1.7000    5.4380 hc        1 MOL      0.041513
    120 H56        -4.1040    1.9920    6.4190 hc        1 MOL      0.041513
    121 N11        -5.5050    1.9210    0.1770 n         1 MOL     -0.599320
    122 C40        -6.5890    2.0650   -0.8110 c3        1 MOL      0.444195
    123 C41        -6.6600    0.8460   -1.7450 c         1 MOL      0.522366
    124 O16        -5.9820   -0.1350   -1.4570 o         1 MOL     -0.475288
    125 C42        -7.9710    2.2990   -0.2030 c3        1 MOL      0.011709
    126 O17        -8.4770    1.3020    0.7250 oh        1 MOL     -0.585540
    127 H57        -5.4660    1.0540    0.6800 hn        1 MOL      0.323095
    128 H58        -6.4400    2.9740   -1.4010 h1        1 MOL     -0.024807
    129 H59        -8.6690    2.5660   -1.0000 h1        1 MOL      0.033886
    130 H60        -7.8740    3.2490    0.3110 h1        1 MOL      0.033886
    131 H61        -9.3150    1.6970    0.9970 ho        1 MOL      0.406226
    132 N12        -7.3370    0.8670   -2.9380 n         1 MOL     -0.680028
    133 C43        -7.4450   -0.2600   -3.9460 c3        1 MOL      0.407457
    134 C44        -7.5760   -1.6920   -3.3700 c         1 MOL      0.373761
    135 O18        -6.9920   -2.6210   -3.8870 o         1 MOL     -0.440941
    136 C45        -6.3190   -0.0540   -5.0280 c3        1 MOL     -0.477332
    137 H62        -7.8000    1.7270   -3.1880 hn        1 MOL      0.309463
    138 H63        -8.4070   -0.0530   -4.4170 h1        1 MOL      0.017501
    139 H64        -6.4680   -0.7440   -5.8520 hc        1 MOL      0.139241
    140 H65        -6.3760    0.9430   -5.4700 hc        1 MOL      0.139241
    141 H66        -5.3290   -0.1650   -4.5810 hc        1 MOL      0.139241
    142 N13        -8.5360   -1.8090   -2.4050 n         1 MOL     -0.566484
    143 C46        -9.0210   -3.0730   -1.8310 c3        1 MOL      0.428885
    144 C47        -7.9070   -4.0360   -1.2640 c         1 MOL      0.153643
    145 O19        -8.0600   -5.2480   -1.2900 o         1 MOL     -0.416338
    146 C48       -10.0030   -3.8380   -2.7720 c3        1 MOL     -0.343985
    147 H67        -9.0800   -0.9870   -2.1900 hn        1 MOL      0.281060
    148 H68        -9.5270   -2.7540   -0.9180 h1        1 MOL     -0.019757
    149 H69        -9.5300   -4.0550   -3.7270 hc        1 MOL      0.094292
    150 H70       -10.3420   -4.8010   -2.3730 hc        1 MOL      0.094292
    151 H71       -10.8720   -3.1990   -2.9140 hc        1 MOL      0.094292
    152 N14        -6.7120   -3.4870   -0.8400 n         1 MOL      0.038186
    153 C49        -5.6200   -4.3290   -0.2750 c3        1 MOL     -0.290062
    154 C50        -6.0910   -4.9500    1.0400 c         1 MOL      0.488366
    155 O20        -5.9540   -6.1370    1.1980 o         1 MOL     -0.530398
    156 C51        -4.3510   -3.5750   -0.0840 c3        1 MOL      0.259720
    157 C52        -3.0930   -4.4430    0.1610 c3        1 MOL     -0.151071
    158 C53        -1.7300   -3.6940    0.1990 c         1 MOL      0.735708
    159 O21        -0.7360   -4.3670    0.3990 o         1 MOL     -0.785297
    160 O22        -1.6740   -2.5100   -0.2560 o         1 MOL     -0.785297
    161 H72        -6.5860   -2.4960   -0.9000 hn        1 MOL      0.095651
    162 H73        -5.3900   -5.1010   -1.0110 h1        1 MOL      0.169226
    163 H74        -4.4190   -2.8880    0.7550 hc        1 MOL     -0.047376
    164 H75        -4.2620   -3.0240   -1.0280 hc        1 MOL     -0.047376
    165 H76        -3.0560   -5.2040   -0.6210 hc        1 MOL      0.035009
    166 H77        -3.2300   -4.8660    1.1450 hc        1 MOL      0.035009
    167 N15        -6.7380   -4.1890    1.9070 n         1 MOL     -0.227911
    168 C54        -7.2840   -4.8730    3.1040 c3        1 MOL     -0.218938
    169 H78        -6.9000   -4.3930    4.0040 h1        1 MOL      0.100786
    170 H79        -8.3720   -4.8090    3.0950 h1        1 MOL      0.100786
    171 H80        -6.9820   -5.9200    3.0950 h1        1 MOL      0.100786
    172 H81        -6.9700   -3.2470    1.6220 hn        1 MOL      0.193234
    173 Ca1         0.8990   -2.5910   -1.0440 Ca        1 MOL      1.749953
    174 O23         2.3200   -4.8770    0.1200 oh        1 MOL     -0.803300
    175 H82         2.0690   -5.0310    1.0220 ho        1 MOL      0.397643
    176 H83         2.1830   -5.7230   -0.3160 ho        1 MOL      0.397643
    177 O24        -0.4560   -2.0290   -3.2300 oh        1 MOL     -0.803300
    178 H84        -0.3380   -2.3050   -4.1450 ho        1 MOL      0.397643
    179 H85        -1.3500   -1.6930   -3.1990 ho        1 MOL      0.397643
    180 O25         1.9530   -0.7010   -2.6890 oh        1 MOL     -0.803300
    181 H86         2.9000   -0.7820   -2.7370 ho        1 MOL      0.397643
    182 H87         1.7200   -0.1240   -3.4260 ho        1 MOL      0.397643
    183 O26         0.0530   -0.0870   -0.1200 oh        1 MOL     -0.803300
    184 H88        -0.4340    0.4560   -0.7450 ho        1 MOL      0.397643
    185 H89        -0.1210    0.3180    0.7320 ho        1 MOL      0.397643
    186 O27         0.6990   -4.6300   -2.7470 oh        1 MOL     -0.803300
    187 H90         1.5290   -4.7850   -3.2070 ho        1 MOL      0.397643
    188 H91         0.1630   -5.3970   -2.9530 ho        1 MOL      0.397643
@<TRIPOS>BOND
     1    1    2 1   
     2    1    4 1   
     3    1    5 1   
     4    1    6 1   
     5    2    3 2   
     6    2    7 1   
     7    7    8 1   
     8    7   15 1   
     9    8    9 1   
    10    8   11 1   
    11    8   16 1   
    12    9   10 2   
    13    9   19 1   
    14   11   12 1   
    15   11   17 1   
    16   11   18 1   
    17   12   13 1   
    18   12   14 1   
    19   19   20 1   
    20   19   28 1   
    21   20   21 1   
    22   20   23 1   
    23   20   29 1   
    24   21   22 2   
    25   21   41 1   
    26   23   24 1   
    27   23   30 1   
    28   23   31 1   
    29   24   25 1   
    30   24   32 1   
    31   24   33 1   
    32   25   26 1   
    33   25   34 1   
    34   25   35 1   
    35   26   27 1   
    36   26   36 1   
    37   26   37 1   
    38   27   38 1   
    39   27   39 1   
    40   27   40 1   
    41   41   42 1   
    42   41   49 1   
    43   42   43 1   
    44   42   45 1   
    45   42   50 1   
    46   43   44 2   
    47   43   53 1   
    48   45   46 1   
    49   45   51 1   
    50   45   52 1   
    51   46   47 1   
    52   46   48 1   
    53   53   54 1   
    54   53   57 1   
    55   54   55 1   
    56   54   58 1   
    57   54   59 1   
    58   55   56 2   
    59   55   60 1   
    60   60   61 1   
    61   60   68 1   
    62   61   62 1   
    63   61   64 1   
    64   61   69 1   
    65   62   63 2   
    66   62   74 1   
    67   64   65 1   
    68   64   70 1   
    69   64   71 1   
    70   65   66 1   
    71   65   67 2   
    72   66   72 1   
    73   66   73 1   
    74   74   75 1   
    75   74   78 1   
    76   75   76 1   
    77   75   79 1   
    78   75   80 1   
    79   76   77 2   
    80   76   81 1   
    81   81   82 1   
    82   81   93 1   
    83   82   83 1   
    84   82   85 1   
    85   82   94 1   
    86   83   84 2   
    87   83  102 1   
    88   85   86 1   
    89   85   95 1   
    90   85   96 1   
    91   86   87 ar  
    92   86   88 ar  
    93   87   89 ar  
    94   87   97 1   
    95   88   90 ar  
    96   88   98 1   
    97   89   91 ar  
    98   89   99 1   
    99   90   91 ar  
   100   90  100 1   
   101   91   92 1   
   102   92  101 1   
   103  102  103 1   
   104  102  110 1   
   105  103  104 1   
   106  103  106 1   
   107  103  111 1   
   108  104  105 2   
   109  104  121 1   
   110  106  107 1   
   111  106  108 1   
   112  106  112 1   
   113  107  109 1   
   114  107  113 1   
   115  107  114 1   
   116  108  115 1   
   117  108  116 1   
   118  108  117 1   
   119  109  118 1   
   120  109  119 1   
   121  109  120 1   
   122  121  122 1   
   123  121  127 1   
   124  122  123 1   
   125  122  125 1   
   126  122  128 1   
   127  123  124 2   
   128  123  132 1   
   129  125  126 1   
   130  125  129 1   
   131  125  130 1   
   132  126  131 1   
   133  132  133 1   
   134  132  137 1   
   135  133  134 1   
   136  133  136 1   
   137  133  138 1   
   138  134  135 2   
   139  134  142 1   
   140  136  139 1   
   141  136  140 1   
   142  136  141 1   
   143  142  143 1   
   144  142  147 1   
   145  143  144 1   
   146  143  146 1   
   147  143  148 1   
   148  144  145 2   
   149  144  152 1   
   150  146  149 1   
   151  146  150 1   
   152  146  151 1   
   153  152  153 1   
   154  152  161 1   
   155  153  154 1   
   156  153  156 1   
   157  153  162 1   
   158  154  155 2   
   159  154  167 1   
   160  156  157 1   
   161  156  163 1   
   162  156  164 1   
   163  157  158 1   
   164  157  165 1   
   165  157  166 1   
   166  158  159 1   
   167  158  160 1   
   168  167  168 1   
   169  167  172 1   
   170  168  169 1   
   171  168  170 1   
   172  168  171 1   
   173  174  175 1   
   174  174  176 1   
   175  177  178 1   
   176  177  179 1   
   177  180  181 1   
   178  180  182 1   
   179  183  184 1   
   180  183  185 1   
   181  186  187 1   
   182  186  188 1   
@<TRIPOS>SUBSTRUCTURE
     1 MOL         1 TEMP              0 ****  ****    0 ROOT
