@<TRIPOS>MOLECULE
MOL
  192   187     1     0     0
SMALL
resp


@<TRIPOS>ATOM
      1 C1          5.4210    4.6780   -2.8590 c3        1 MOL     -0.363247
      2 C2          5.9130    3.6720   -1.7320 c         1 MOL      0.859814
      3 O1          5.1200    3.4260   -0.8120 o         1 MOL     -0.650333
      4 H1          4.6300    4.2090   -3.4440 hc        1 MOL      0.081167
      5 H2          5.0390    5.5870   -2.3940 hc        1 MOL      0.081167
      6 H3          6.2560    4.9280   -3.5130 hc        1 MOL      0.081167
      7 N1          7.1670    3.1420   -1.9150 n         1 MOL     -0.841814
      8 C3          7.4910    1.8390   -1.3200 c3        1 MOL      0.202590
      9 C4          6.3850    0.7710   -1.4340 c         1 MOL      0.278420
     10 O2          5.6720    0.4470   -0.4180 o         1 MOL     -0.480455
     11 C5          8.2810    1.9040   -0.0250 c3        1 MOL     -0.071945
     12 C6          7.8360    3.0990    0.9240 c         1 MOL      0.673515
     13 O3          6.8090    2.8760    1.7090 o         1 MOL     -0.706064
     14 O4          8.5980    4.1080    1.0400 o         1 MOL     -0.706064
     15 H4          7.8360    3.5500   -2.5480 hn        1 MOL      0.406370
     16 H5          8.3170    1.4570   -1.9350 h1        1 MOL      0.036792
     17 H6          9.3640    1.8670   -0.0990 hc        1 MOL      0.024908
     18 H7          8.0780    0.9660    0.5030 hc        1 MOL      0.024908
     19 N2          6.0850    0.3150   -2.6580 n         1 MOL     -0.412286
     20 C7          5.1270   -0.7770   -3.0340 c3        1 MOL     -0.070742
     21 C8          5.5470   -2.1550   -2.5520 c         1 MOL      0.597085
     22 O5          5.6470   -3.0080   -3.3810 o         1 MOL     -0.575343
     23 C9          3.6960   -0.3170   -2.6230 c3        1 MOL      0.601260
     24 C10         2.5840   -1.2570   -3.1400 c3        1 MOL     -0.142435
     25 C11         3.4010    1.0970   -3.2060 c3        1 MOL     -0.389830
     26 C12         2.3530   -1.2740   -4.7010 c3        1 MOL     -0.677220
     27 H8          6.7220    0.5500   -3.4110 hn        1 MOL      0.290013
     28 H9          5.1410   -0.7790   -4.1210 h1        1 MOL      0.043824
     29 H10         3.5390   -0.3720   -1.5470 hc        1 MOL     -0.295908
     30 H11         1.7080   -0.9170   -2.5920 hc        1 MOL      0.125908
     31 H12         2.8600   -2.2760   -2.8730 hc        1 MOL      0.125908
     32 H13         3.5200    1.0360   -4.2810 hc        1 MOL      0.086444
     33 H14         2.3360    1.2950   -3.1240 hc        1 MOL      0.086444
     34 H15         4.0410    1.8140   -2.6950 hc        1 MOL      0.086444
     35 H16         1.8120   -2.2080   -4.8800 hc        1 MOL      0.167931
     36 H17         1.7020   -0.4430   -4.9570 hc        1 MOL      0.167931
     37 H18         3.2110   -1.3330   -5.3750 hc        1 MOL      0.167931
     38 N3          5.9970   -2.3400   -1.3140 n         1 MOL     -0.351750
     39 C13         6.4300   -3.7060   -0.7840 c3        1 MOL     -0.071548
     40 C14         5.5310   -4.9210   -1.0560 c         1 MOL      0.682791
     41 O6          5.9750   -5.9290   -1.4750 o         1 MOL     -0.567345
     42 C15         6.9560   -3.6050    0.6450 c3        1 MOL     -0.387906
     43 C16         7.9350   -2.5060    0.8520 c         1 MOL      0.852024
     44 O7          7.6190   -1.6740    1.7430 o         1 MOL     -0.727922
     45 O8          9.0670   -2.4820    0.3320 o         1 MOL     -0.727922
     46 H19         5.9440   -1.5640   -0.6870 hn        1 MOL      0.279418
     47 H20         7.2900   -3.9810   -1.3990 h1        1 MOL      0.076377
     48 H21         7.4160   -4.5290    1.0040 hc        1 MOL      0.106810
     49 H22         6.0980   -3.3930    1.2900 hc        1 MOL      0.106810
     50 N4          4.1890   -4.7160   -0.9220 n         1 MOL     -0.651560
     51 C17         3.4480   -3.7670   -0.0800 c3        1 MOL      0.491424
     52 C18         2.2730   -4.4350    0.6990 c         1 MOL      0.256043
     53 O9          1.7410   -5.4960    0.3210 o         1 MOL     -0.547327
     54 H23         3.6150   -5.4630   -1.2870 hn        1 MOL      0.297719
     55 H24         3.0290   -2.9590   -0.6930 h1        1 MOL     -0.043973
     56 H25         4.0670   -3.2920    0.6790 h1        1 MOL     -0.043973
     57 N5          1.7100   -3.7960    1.7440 n         1 MOL     -0.193195
     58 C19         2.0860   -2.5020    2.4120 c3        1 MOL      0.002080
     59 C20         2.2600   -1.3220    1.4190 c         1 MOL      0.004273
     60 O10         3.3860   -0.7610    1.3640 o         1 MOL     -0.306702
     61 C21         3.1880   -2.7390    3.4510 c3        1 MOL     -0.184909
     62 C22         3.5010   -1.5660    4.3650 c         1 MOL      0.651179
     63 O11         2.5500   -0.8520    4.7900 o         1 MOL     -0.652482
     64 O12         4.7220   -1.2960    4.5240 o         1 MOL     -0.652482
     65 H26         1.1540   -4.4530    2.2740 hn        1 MOL      0.224123
     66 H27         1.1860   -2.2790    2.9980 h1        1 MOL      0.070399
     67 H28         4.0960   -3.1030    2.9870 hc        1 MOL      0.043653
     68 H29         2.7980   -3.5520    4.0640 hc        1 MOL      0.043653
     69 N6          1.2180   -0.7350    0.7830 n         1 MOL      0.133229
     70 C23        -0.2210   -1.0520    0.9310 c3        1 MOL     -0.121577
     71 C24        -0.5710   -2.3430    0.0820 c         1 MOL      0.348833
     72 O13         0.1120   -2.7400   -0.8430 o         1 MOL     -0.437819
     73 H30         1.3880    0.1880    0.4070 hn        1 MOL      0.071655
     74 H31        -0.7890   -0.2800    0.4170 h1        1 MOL      0.070148
     75 H32        -0.5400   -1.2160    1.9610 h1        1 MOL      0.070148
     76 N7         -1.5940   -3.0100    0.4810 n         1 MOL     -0.342784
     77 C25        -2.0520   -4.3190   -0.0380 c3        1 MOL     -0.158337
     78 C26        -2.7240   -4.1650   -1.4270 c         1 MOL      0.693801
     79 O14        -2.6780   -5.0580   -2.2470 o         1 MOL     -0.542034
     80 C27        -2.9550   -4.9730    1.0110 c3        1 MOL      0.051244
     81 C28        -2.2890   -5.7270    2.1420 c3        1 MOL      0.010971
     82 C29        -3.2600   -6.0240    3.2580 c         1 MOL      0.593641
     83 N8         -2.8040   -6.5670    4.3020 n         1 MOL     -0.714360
     84 O15        -4.4100   -5.5670    3.2280 o         1 MOL     -0.569051
     85 H33        -2.0550   -2.6450    1.3090 hn        1 MOL      0.285659
     86 H34        -1.1580   -4.9120   -0.2240 h1        1 MOL      0.165754
     87 H35        -3.7240   -5.6050    0.5740 hc        1 MOL     -0.006211
     88 H36        -3.4970   -4.1810    1.5380 hc        1 MOL     -0.006211
     89 H37        -1.4210   -5.1570    2.4860 hc        1 MOL      0.007307
     90 H38        -1.8990   -6.6590    1.7560 hc        1 MOL      0.007307
     91 H39        -1.8690   -6.9420    4.4060 hn        1 MOL      0.342098
     92 H40        -3.4280   -6.7270    5.0730 hn        1 MOL      0.342098
     93 N9         -3.2570   -2.9840   -1.8050 n         1 MOL     -0.748085
     94 C30        -3.6370   -2.5500   -3.2350 c3        1 MOL      0.128298
     95 C31        -5.0440   -1.9010   -3.3870 c         1 MOL      0.582941
     96 O16        -5.4400   -1.9420   -4.5430 o         1 MOL     -0.567726
     97 C32        -2.6530   -1.5000   -3.7380 c3        1 MOL      0.067465
     98 C33        -1.2650   -2.0930   -3.9850 c3        1 MOL     -0.147779
     99 C34        -2.4640   -0.3080   -2.7970 c3        1 MOL     -0.147779
    100 H41        -3.2010   -2.2690   -1.0920 hn        1 MOL      0.310161
    101 H42        -3.6920   -3.3860   -3.9300 h1        1 MOL      0.091412
    102 H43        -3.1010   -1.1690   -4.6840 hc        1 MOL      0.007139
    103 H44        -1.3430   -2.7240   -4.8690 hc        1 MOL      0.034606
    104 H45        -0.5640   -1.3120   -4.2890 hc        1 MOL      0.034606
    105 H46        -0.9440   -2.5570   -3.0580 hc        1 MOL      0.034606
    106 H47        -3.4220    0.1270   -2.5270 hc        1 MOL      0.034606
    107 H48        -1.9150   -0.5950   -1.9010 hc        1 MOL      0.034606
    108 H49        -1.7850    0.4610   -3.1690 hc        1 MOL      0.034606
    109 N10        -5.6420   -1.3690   -2.3410 n         1 MOL     -0.291157
    110 C35        -7.0240   -0.7030   -2.1810 c3        1 MOL     -0.032868
    111 C36        -6.9700    0.7440   -1.6540 c         1 MOL      0.553988
    112 O17        -7.8590    1.5570   -1.9690 o         1 MOL     -0.533968
    113 C37        -7.7890   -1.6920   -1.2670 c3        1 MOL     -0.240769
    114 C38        -7.9040   -3.0630   -1.7800 c         1 MOL      0.553671
    115 N11        -7.1960   -4.0220   -1.1740 n         1 MOL     -0.730201
    116 O18        -8.5300   -3.3000   -2.8200 o         1 MOL     -0.522112
    117 H50        -5.1340   -1.4850   -1.4780 hn        1 MOL      0.187993
    118 H51        -7.5200   -0.6880   -3.1470 h1        1 MOL      0.115878
    119 H52        -8.7280   -1.1700   -1.0980 hc        1 MOL      0.114585
    120 H53        -7.3180   -1.6710   -0.2910 hc        1 MOL      0.114585
    121 H54        -6.7530   -3.9090   -0.2700 hn        1 MOL      0.355441
    122 H55        -7.2050   -4.9020   -1.6620 hn        1 MOL      0.355441
    123 N12        -5.9280    1.0980   -0.8780 n         1 MOL     -0.400918
    124 C39        -6.0110    2.2680    0.0170 c3        1 MOL      0.069844
    125 C40        -4.6940    2.9410    0.3200 c         1 MOL      0.450446
    126 O19        -3.6140    2.3770    0.1710 o         1 MOL     -0.491034
    127 C41        -6.6550    1.8820    1.4130 c3        1 MOL     -0.353826
    128 C42        -8.0430    1.2650    1.4600 ca        1 MOL      0.007274
    129 C43        -9.2370    1.9340    1.0870 ca        1 MOL     -0.100189
    130 C44        -8.0870   -0.0760    1.9060 ca        1 MOL     -0.100189
    131 C45       -10.4560    1.2170    1.1530 ca        1 MOL     -0.318451
    132 C46        -9.3430   -0.7510    1.9120 ca        1 MOL     -0.318451
    133 C47       -10.4570   -0.1280    1.5610 ca        1 MOL      0.442330
    134 O20       -11.6190   -0.7070    1.6720 oh        1 MOL     -0.540121
    135 H56        -5.2330    0.4360   -0.5600 hn        1 MOL      0.264460
    136 H57        -6.5750    2.9920   -0.5740 h1        1 MOL      0.086931
    137 H58        -6.6590    2.7960    2.0030 hc        1 MOL      0.186303
    138 H59        -6.0290    1.2320    2.0250 hc        1 MOL      0.186303
    139 H60        -9.2200    2.9730    0.7730 ha        1 MOL      0.130169
    140 H61        -7.2420   -0.5900    2.3410 ha        1 MOL      0.130169
    141 H62       -11.3550    1.7990    0.9760 ha        1 MOL      0.141556
    142 H63        -9.3400   -1.7860    2.2400 ha        1 MOL      0.141556
    143 H64       -12.3840   -0.1330    1.5720 ho        1 MOL      0.382561
    144 N13        -4.6830    4.1710    0.7620 n         1 MOL     -0.514401
    145 C48        -3.5230    4.9410    1.2670 c3        1 MOL      0.062217
    146 C49        -2.2350    5.1740    0.4890 c         1 MOL      0.208095
    147 O21        -1.4680    6.0990    0.7940 o         1 MOL     -0.496591
    148 C50        -3.1180    4.3860    2.6520 c3        1 MOL      0.199349
    149 C51        -4.1280    3.6830    3.5590 c3        1 MOL     -0.141795
    150 C52        -3.4890    3.2300    4.8780 c         1 MOL      0.654340
    151 O22        -4.1770    3.3430    5.9060 o         1 MOL     -0.706617
    152 O23        -2.4280    2.5150    4.9150 o         1 MOL     -0.706617
    153 H65        -5.5660    4.6560    0.7270 hn        1 MOL      0.293608
    154 H66        -3.8510    5.9550    1.5130 h1        1 MOL      0.062478
    155 H67        -2.7300    5.2350    3.2300 hc        1 MOL     -0.017880
    156 H68        -2.3420    3.6430    2.4970 hc        1 MOL     -0.017880
    157 H69        -4.5110    2.8070    3.0320 hc        1 MOL     -0.034875
    158 H70        -4.9540    4.3500    3.7850 hc        1 MOL     -0.034875
    159 N14        -2.0390    4.4720   -0.5780 n         1 MOL     -0.025110
    160 C53        -0.8850    4.6150   -1.4780 c3        1 MOL     -0.133709
    161 C54        -1.2060    5.3990   -2.7830 c         1 MOL      0.537992
    162 O24        -0.3660    5.8590   -3.4810 o         1 MOL     -0.530390
    163 C55        -0.4350    3.2140   -1.9520 c3        1 MOL     -0.070149
    164 C56         0.0470    2.3550   -0.8390 c3        1 MOL      0.257313
    165 C57         1.1780    2.8890    0.0680 c         1 MOL      0.600600
    166 O25         2.1360    2.1610    0.4120 o         1 MOL     -0.627838
    167 O26         1.1510    4.0290    0.5980 o         1 MOL     -0.627838
    168 H71        -2.6660    3.6840   -0.6560 hn        1 MOL      0.177661
    169 H72        -0.1140    5.2280   -1.0100 h1        1 MOL      0.151301
    170 H73         0.4730    3.3800   -2.5320 hc        1 MOL     -0.003058
    171 H74        -1.2000    2.6830   -2.5170 hc        1 MOL     -0.003058
    172 H75         0.5200    1.4590   -1.2450 hc        1 MOL     -0.065276
    173 H76        -0.8040    2.0310   -0.2300 hc        1 MOL     -0.065276
    174 N15        -2.5100    5.6110   -3.0490 n         1 MOL     -0.348788
    175 C58        -2.9910    6.5970   -4.0630 c3        1 MOL     -0.106711
    176 H77        -3.7770    6.1430   -4.6670 h1        1 MOL      0.068402
    177 H78        -3.3860    7.4770   -3.5560 h1        1 MOL      0.068402
    178 H79        -2.1620    6.8900   -4.7080 h1        1 MOL      0.068402
    179 H80        -3.1990    5.2620   -2.3960 hn        1 MOL      0.202553
    180 Ca1         4.4180    1.9230    1.4800 Ca        1 MOL      1.783451
    181 O27         2.3340    1.2130    3.1210 oh        1 MOL     -0.830052
    182 H81         1.4020    1.4410    3.1620 ho        1 MOL      0.391790
    183 H82         2.4360    0.4760    3.7180 ho        1 MOL      0.391790
    184 O28         3.6730    4.4500    1.4610 oh        1 MOL     -0.830052
    185 H83         2.7440    4.5040    1.2610 ho        1 MOL      0.391790
    186 H84         4.0600    5.2180    1.0510 ho        1 MOL      0.391790
    187 O29         4.9840    3.2920    3.9520 oh        1 MOL     -0.830052
    188 H85         4.7560    4.2180    4.0820 ho        1 MOL      0.391790
    189 H86         5.1420    2.9650    4.8260 ho        1 MOL      0.391790
    190 O30         5.9000    0.0400    2.4750 oh        1 MOL     -0.830052
    191 H87         5.4280   -0.6430    2.9500 ho        1 MOL      0.391790
    192 H88         6.6090   -0.4290    2.0200 ho        1 MOL      0.391790
@<TRIPOS>BOND
     1    1    2 1   
     2    1    4 1   
     3    1    5 1   
     4    1    6 1   
     5    2    3 2   
     6    2    7 1   
     7    7    8 1   
     8    7   15 1   
     9    8    9 1   
    10    8   11 1   
    11    8   16 1   
    12    9   10 2   
    13    9   19 1   
    14   11   12 1   
    15   11   17 1   
    16   11   18 1   
    17   12   13 1   
    18   12   14 1   
    19   19   20 1   
    20   19   27 1   
    21   20   21 1   
    22   20   23 1   
    23   20   28 1   
    24   21   22 2   
    25   21   38 1   
    26   23   24 1   
    27   23   25 1   
    28   23   29 1   
    29   24   26 1   
    30   24   30 1   
    31   24   31 1   
    32   25   32 1   
    33   25   33 1   
    34   25   34 1   
    35   26   35 1   
    36   26   36 1   
    37   26   37 1   
    38   38   39 1   
    39   38   46 1   
    40   39   40 1   
    41   39   42 1   
    42   39   47 1   
    43   40   41 2   
    44   40   50 1   
    45   42   43 1   
    46   42   48 1   
    47   42   49 1   
    48   43   44 1   
    49   43   45 1   
    50   50   51 1   
    51   50   54 1   
    52   51   52 1   
    53   51   55 1   
    54   51   56 1   
    55   52   53 2   
    56   52   57 1   
    57   57   58 1   
    58   57   65 1   
    59   58   59 1   
    60   58   61 1   
    61   58   66 1   
    62   59   60 2   
    63   59   69 1   
    64   61   62 1   
    65   61   67 1   
    66   61   68 1   
    67   62   63 1   
    68   62   64 1   
    69   69   70 1   
    70   69   73 1   
    71   70   71 1   
    72   70   74 1   
    73   70   75 1   
    74   71   72 2   
    75   71   76 1   
    76   76   77 1   
    77   76   85 1   
    78   77   78 1   
    79   77   80 1   
    80   77   86 1   
    81   78   79 2   
    82   78   93 1   
    83   80   81 1   
    84   80   87 1   
    85   80   88 1   
    86   81   82 1   
    87   81   89 1   
    88   81   90 1   
    89   82   83 1   
    90   82   84 2   
    91   83   91 1   
    92   83   92 1   
    93   93   94 1   
    94   93  100 1   
    95   94   95 1   
    96   94   97 1   
    97   94  101 1   
    98   95   96 2   
    99   95  109 1   
   100   97   98 1   
   101   97   99 1   
   102   97  102 1   
   103   98  103 1   
   104   98  104 1   
   105   98  105 1   
   106   99  106 1   
   107   99  107 1   
   108   99  108 1   
   109  109  110 1   
   110  109  117 1   
   111  110  111 1   
   112  110  113 1   
   113  110  118 1   
   114  111  112 2   
   115  111  123 1   
   116  113  114 1   
   117  113  119 1   
   118  113  120 1   
   119  114  115 1   
   120  114  116 2   
   121  115  121 1   
   122  115  122 1   
   123  123  124 1   
   124  123  135 1   
   125  124  125 1   
   126  124  127 1   
   127  124  136 1   
   128  125  126 2   
   129  125  144 1   
   130  127  128 1   
   131  127  137 1   
   132  127  138 1   
   133  128  129 ar  
   134  128  130 ar  
   135  129  131 ar  
   136  129  139 1   
   137  130  132 ar  
   138  130  140 1   
   139  131  133 ar  
   140  131  141 1   
   141  132  133 ar  
   142  132  142 1   
   143  133  134 1   
   144  134  143 1   
   145  144  145 1   
   146  144  153 1   
   147  145  146 1   
   148  145  148 1   
   149  145  154 1   
   150  146  147 2   
   151  146  159 1   
   152  148  149 1   
   153  148  155 1   
   154  148  156 1   
   155  149  150 1   
   156  149  157 1   
   157  149  158 1   
   158  150  151 1   
   159  150  152 1   
   160  159  160 1   
   161  159  168 1   
   162  160  161 1   
   163  160  163 1   
   164  160  169 1   
   165  161  162 2   
   166  161  174 1   
   167  163  164 1   
   168  163  170 1   
   169  163  171 1   
   170  164  165 1   
   171  164  172 1   
   172  164  173 1   
   173  165  166 1   
   174  165  167 1   
   175  174  175 1   
   176  174  179 1   
   177  175  176 1   
   178  175  177 1   
   179  175  178 1   
   180  181  182 1   
   181  181  183 1   
   182  184  185 1   
   183  184  186 1   
   184  187  188 1   
   185  187  189 1   
   186  190  191 1   
   187  190  192 1   
@<TRIPOS>SUBSTRUCTURE
     1 MOL         1 TEMP              0 ****  ****    0 ROOT
