@<TRIPOS>MOLECULE
MOL
  184   179     1     0     0
SMALL
resp


@<TRIPOS>ATOM
      1 C1          5.2810    7.5880   -2.4310 c3        1 MOL     -0.174268
      2 C2          4.6790    6.4390   -1.6030 c         1 MOL      0.543529
      3 O1          3.6420    6.5550   -0.9410 o         1 MOL     -0.575651
      4 H1          4.5070    8.0260   -3.0610 hc        1 MOL      0.057943
      5 H2          5.6780    8.3510   -1.7600 hc        1 MOL      0.057943
      6 H3          6.0850    7.2020   -3.0580 hc        1 MOL      0.057943
      7 N1          5.2770    5.2470   -1.4800 n         1 MOL     -0.312734
      8 C3          6.4810    4.8000   -2.0840 c3        1 MOL     -0.055993
      9 C4          7.7030    4.7690   -1.2090 c         1 MOL      0.619194
     10 O2          8.6570    5.4280   -1.5620 o         1 MOL     -0.557731
     11 C5          6.1950    3.4180   -2.7210 c3        1 MOL     -0.408007
     12 C6          5.6670    2.3850   -1.6750 c         1 MOL      0.734816
     13 O3          4.4570    2.2630   -1.4030 o         1 MOL     -0.726616
     14 O4          6.4870    1.8200   -0.8970 o         1 MOL     -0.726616
     15 H4          4.9360    4.6520   -0.7300 hn        1 MOL      0.261156
     16 H5          6.5580    5.4440   -2.9540 h1        1 MOL      0.135473
     17 H6          7.1360    2.9630   -3.0200 hc        1 MOL      0.141676
     18 H7          5.4530    3.4590   -3.5120 hc        1 MOL      0.141676
     19 N2          7.7900    4.0230   -0.0380 n         1 MOL     -0.689757
     20 C7          9.0560    3.8640    0.6600 c3        1 MOL      0.402479
     21 C8          9.6380    2.4410    0.6070 c         1 MOL      0.413011
     22 O5         10.7670    2.2670    1.0280 o         1 MOL     -0.578625
     23 C9          9.1010    4.3600    2.0670 c3        1 MOL     -0.108868
     24 H8          6.9550    3.5320    0.2520 hn        1 MOL      0.307872
     25 H9          9.8330    4.4410    0.1530 h1        1 MOL      0.032341
     26 H10         8.8740    5.4210    2.2090 hc        1 MOL      0.012014
     27 H11         8.4180    3.7480    2.6520 hc        1 MOL      0.012014
     28 H12        10.1310    4.3010    2.3980 hc        1 MOL      0.012014
     29 N3          8.9560    1.4370    0.1230 n         1 MOL     -0.354348
     30 C10         9.4050    0.0530    0.0650 c3        1 MOL      0.153218
     31 C11         9.1050   -0.6070   -1.1890 c         1 MOL      0.295504
     32 O6          9.7430   -1.5880   -1.5340 o         1 MOL     -0.530895
     33 C12         8.7580   -0.7000    1.2090 c3        1 MOL     -0.400785
     34 C13         7.2200   -0.5660    1.2470 c         1 MOL      0.959719
     35 O7          6.6660    0.1380    2.1870 o         1 MOL     -0.832794
     36 O8          6.4510   -1.1630    0.4700 o         1 MOL     -0.832794
     37 H13         7.9900    1.6280   -0.1130 hn        1 MOL      0.299109
     38 H14        10.4870    0.0260    0.2250 h1        1 MOL      0.105934
     39 H15         9.2320   -0.2790    2.0880 hc        1 MOL      0.111497
     40 H16         8.9760   -1.7590    1.2550 hc        1 MOL      0.111497
     41 N4          8.0310   -0.2170   -1.8710 n         1 MOL     -0.041912
     42 C14         7.4310   -0.8030   -3.0870 c3        1 MOL     -0.201587
     43 C15         6.8860   -2.2760   -3.0390 c         1 MOL      0.464461
     44 O9          6.7080   -2.9290   -4.1040 o         1 MOL     -0.554817
     45 H17         7.5690    0.6260   -1.5780 hn        1 MOL      0.028471
     46 H18         8.2560   -0.8580   -3.7970 h1        1 MOL      0.098241
     47 H19         6.6700   -0.1830   -3.5700 h1        1 MOL      0.098241
     48 N5          6.7480   -2.7300   -1.7890 n         1 MOL     -0.290456
     49 C16         6.4460   -4.1190   -1.4900 c3        1 MOL      0.263302
     50 C17         4.9550   -4.3380   -1.1530 c         1 MOL      0.337833
     51 O10         4.4730   -5.3400   -1.5840 o         1 MOL     -0.508902
     52 C18         7.4210   -4.6450   -0.3860 c3        1 MOL     -0.393446
     53 C19         7.1550   -6.0920    0.0040 c         1 MOL      0.695658
     54 N6          7.4870   -7.0190   -0.8330 n         1 MOL     -0.834024
     55 O11         6.5570   -6.3760    1.0640 o         1 MOL     -0.580272
     56 H20         6.7810   -2.1180   -0.9880 hn        1 MOL      0.298523
     57 H21         6.6370   -4.6880   -2.4010 h1        1 MOL      0.006763
     58 H22         7.2850   -4.0360    0.4990 hc        1 MOL      0.106878
     59 H23         8.4540   -4.5770   -0.7460 hc        1 MOL      0.106878
     60 H24         7.8970   -6.6590   -1.6770 hn        1 MOL      0.390484
     61 H25         7.2380   -7.9860   -0.6590 hn        1 MOL      0.390484
     62 N7          4.3620   -3.4960   -0.3690 n         1 MOL     -0.231234
     63 C20         2.9600   -3.6920    0.2010 c3        1 MOL     -0.028203
     64 C21         2.6760   -2.5050    1.1650 c         1 MOL      0.409080
     65 O12         3.5070   -1.5980    1.3780 o         1 MOL     -0.532824
     66 H26         4.8340   -2.6810   -0.0100 hn        1 MOL      0.224700
     67 H27         2.8110   -4.6700    0.6680 h1        1 MOL      0.101774
     68 H28         2.3340   -3.7240   -0.6940 h1        1 MOL      0.101774
     69 N8          1.5190   -2.5010    1.8250 n         1 MOL     -0.144811
     70 C22         0.4110   -3.4920    1.8340 c3        1 MOL     -0.396090
     71 C23        -1.0010   -2.8260    1.6460 c         1 MOL      0.824117
     72 O13        -1.8150   -3.4120    0.9030 o         1 MOL     -0.548933
     73 C24         0.3870   -4.1980    3.1930 c3        1 MOL      0.334456
     74 C25         1.6340   -5.0950    3.2210 c3        1 MOL     -0.328142
     75 O14         0.3720   -3.3290    4.2790 oh        1 MOL     -0.596350
     76 H29         1.2880   -1.6620    2.3490 hn        1 MOL      0.216840
     77 H30         0.6010   -4.1970    1.0220 h1        1 MOL      0.161155
     78 H31        -0.4840   -4.8480    3.3170 h1        1 MOL      0.032984
     79 H32        -0.3130   -3.6470    4.8830 ho        1 MOL      0.387598
     80 H33         2.5980   -4.6090    3.0930 hc        1 MOL      0.091650
     81 H34         1.7330   -5.7220    4.1110 hc        1 MOL      0.091650
     82 H35         1.5800   -5.7540    2.3500 hc        1 MOL      0.091650
     83 N9         -1.2260   -1.5950    2.1810 n         1 MOL     -0.839019
     84 C26        -2.5280   -0.9300    2.0390 c3        1 MOL     -0.101532
     85 C27        -2.7570   -0.5320    0.5910 c         1 MOL      0.940114
     86 O15        -1.8990    0.1650    0.0960 o         1 MOL     -0.644847
     87 C28        -2.6110    0.2050    3.1110 c3        1 MOL      0.123863
     88 C29        -2.5060   -0.3890    4.5250 c3        1 MOL     -0.053621
     89 C30        -3.8650    1.0630    2.8510 c3        1 MOL     -0.405749
     90 C31        -2.5380    0.7340    5.5940 c3        1 MOL     -0.195637
     91 H36        -0.5420   -1.1770    2.7930 hn        1 MOL      0.423346
     92 H37        -3.2230   -1.7060    2.3550 h1        1 MOL      0.112503
     93 H38        -1.7650    0.8880    2.9600 hc        1 MOL      0.000691
     94 H39        -1.5530   -0.9130    4.6530 hc        1 MOL      0.036353
     95 H40        -3.3790   -1.0250    4.6980 hc        1 MOL      0.036353
     96 H41        -3.8460    1.6510    1.9360 hc        1 MOL      0.162088
     97 H42        -4.7500    0.4420    2.9560 hc        1 MOL      0.162088
     98 H43        -3.8890    1.8240    3.6340 hc        1 MOL      0.162088
     99 H44        -2.0770    1.6280    5.1690 hc        1 MOL      0.046779
    100 H45        -3.5800    0.9360    5.8110 hc        1 MOL      0.046779
    101 H46        -1.8590    0.4610    6.4130 hc        1 MOL      0.046779
    102 N10        -3.8760   -0.8370   -0.0640 n         1 MOL     -0.947518
    103 C32        -5.0730   -1.5390    0.3470 c3        1 MOL      0.968567
    104 C33        -6.3550   -0.9130   -0.2820 c         1 MOL      0.261573
    105 O16        -6.2260   -0.1090   -1.1860 o         1 MOL     -0.472716
    106 C34        -5.0340   -3.0880    0.2410 c3        1 MOL     -0.258806
    107 C35        -4.6340   -3.8540   -1.0780 c         1 MOL      0.778556
    108 O17        -4.3600   -5.0640   -0.8950 o         1 MOL     -0.716746
    109 O18        -4.6030   -3.2940   -2.1690 o         1 MOL     -0.716746
    110 H47        -3.8890   -0.4910   -1.0140 hn        1 MOL      0.341227
    111 H48        -5.2860   -1.3220    1.3950 h1        1 MOL     -0.238451
    112 H49        -6.0250   -3.4910    0.4620 hc        1 MOL     -0.016684
    113 H50        -4.4250   -3.4540    1.0580 hc        1 MOL     -0.016684
    114 N11        -7.5790   -1.3080    0.0580 n         1 MOL     -0.393347
    115 C36        -8.8670   -1.0860   -0.5230 c3        1 MOL      0.546900
    116 C37        -9.9180   -0.7760    0.5560 c         1 MOL     -0.016769
    117 O19        -9.9790   -1.4680    1.5780 o         1 MOL     -0.491737
    118 C38        -9.3310   -2.3110   -1.2950 c3        1 MOL     -0.005906
    119 C39        -8.3920   -2.8200   -2.4000 ca        1 MOL     -0.018828
    120 C40        -7.9180   -4.1540   -2.3660 ca        1 MOL     -0.222327
    121 C41        -8.1310   -1.9650   -3.4810 ca        1 MOL     -0.222327
    122 C42        -7.2680   -4.6070   -3.4970 ca        1 MOL      0.065475
    123 C43        -7.5560   -2.4990   -4.6410 ca        1 MOL      0.065475
    124 C44        -7.1940   -3.8370   -4.6110 ca        1 MOL     -0.273292
    125 H51        -7.5980   -2.1270    0.6530 hn        1 MOL      0.205038
    126 H52        -8.8040   -0.2330   -1.2110 h1        1 MOL     -0.066060
    127 H53       -10.2580   -1.9960   -1.7720 hc        1 MOL     -0.000246
    128 H54        -9.5820   -3.1540   -0.6370 hc        1 MOL     -0.000246
    129 H55        -8.0250   -4.8860   -1.5690 ha        1 MOL      0.133116
    130 H56        -8.5350   -0.9670   -3.4300 ha        1 MOL      0.133116
    131 H57        -6.9910   -5.6520   -3.5210 ha        1 MOL      0.058075
    132 H58        -7.5490   -1.8350   -5.5020 ha        1 MOL      0.058075
    133 H59        -6.7840   -4.3240   -5.4840 ha        1 MOL      0.115323
    134 N12       -10.7830    0.2350    0.5170 n         1 MOL      0.238528
    135 C45       -11.0830    1.0430   -0.6480 c3        1 MOL     -0.214811
    136 C46        -9.9200    1.8900   -1.1260 c         1 MOL      0.520717
    137 O20        -9.4590    1.7590   -2.2600 o         1 MOL     -0.554248
    138 C47       -12.2760    1.9400   -0.2930 c3        1 MOL      0.124644
    139 C48       -12.9360    1.2400    0.9070 c3        1 MOL     -0.313329
    140 C49       -11.7960    0.4450    1.5170 c3        1 MOL      0.116063
    141 H60       -11.3910    0.3190   -1.4020 h1        1 MOL      0.070861
    142 H61       -11.9240    2.9010    0.0900 hc        1 MOL      0.010672
    143 H62       -12.9660    2.1220   -1.1250 hc        1 MOL      0.010672
    144 H63       -13.3080    1.9330    1.6590 hc        1 MOL      0.080815
    145 H64       -13.6730    0.5550    0.4930 hc        1 MOL      0.080815
    146 H65       -11.2460    0.9510    2.3060 h1        1 MOL      0.019841
    147 H66       -12.1370   -0.4430    2.0530 h1        1 MOL      0.019841
    148 N13        -9.2710    2.6210   -0.2650 n         1 MOL     -0.473919
    149 C50        -8.0130    3.4090   -0.5430 c3        1 MOL      0.260849
    150 C51        -8.3170    4.6020   -1.5120 c         1 MOL      0.466821
    151 O21        -9.0760    5.4620   -1.1170 o         1 MOL     -0.590855
    152 C52        -7.3470    3.9780    0.7630 c3        1 MOL      0.025416
    153 C53        -6.9140    2.8500    1.6580 c3        1 MOL      0.034219
    154 C54        -6.3950    3.3400    2.9920 c         1 MOL      0.641267
    155 O22        -5.7340    4.4040    3.0460 o         1 MOL     -0.727658
    156 O23        -6.4720    2.5990    4.0310 o         1 MOL     -0.727658
    157 H67        -9.5040    2.6740    0.7110 hn        1 MOL      0.290011
    158 H68        -7.2090    2.7560   -0.8970 h1        1 MOL      0.048342
    159 H69        -8.0020    4.7120    1.2210 hc        1 MOL     -0.011914
    160 H70        -6.4570    4.5210    0.4410 hc        1 MOL     -0.011914
    161 H71        -6.2010    2.2140    1.1310 hc        1 MOL     -0.084758
    162 H72        -7.7500    2.2050    1.9310 hc        1 MOL     -0.084758
    163 N14        -7.8270    4.7680   -2.7520 n         1 MOL     -0.414248
    164 C55        -7.0270    3.8440   -3.5160 c3        1 MOL     -0.077091
    165 H73        -6.4990    4.3850   -4.3000 h1        1 MOL      0.064668
    166 H74        -6.3050    3.3580   -2.8600 h1        1 MOL      0.064668
    167 H75        -7.6730    3.0910   -3.9680 h1        1 MOL      0.064668
    168 H76        -8.2550    5.5010   -3.2920 hn        1 MOL      0.293849
    169 Ca1         4.4960    0.8520    0.7450 Ca        1 MOL      1.782462
    170 O24         5.8970    2.9790    2.1780 oh        1 MOL     -0.813661
    171 H77         5.5490    3.8000    2.5410 ho        1 MOL      0.407352
    172 H78         6.4920    2.6580    2.8520 ho        1 MOL      0.407352
    173 O25         3.8750    0.9650    3.2830 oh        1 MOL     -0.813661
    174 H79         4.0160    1.8080    3.7210 ho        1 MOL      0.407352
    175 H80         4.3230    0.3230    3.8340 ho        1 MOL      0.407352
    176 O26         3.2330    3.3140    1.1410 oh        1 MOL     -0.813661
    177 H81         3.2300    3.8990    1.9060 ho        1 MOL      0.407352
    178 H82         2.4910    3.6070    0.6130 ho        1 MOL      0.407352
    179 O27         3.6990   -0.5600   -1.6110 oh        1 MOL     -0.813661
    180 H83         3.1280    0.1440   -1.9200 ho        1 MOL      0.407352
    181 H84         4.0390   -0.9660   -2.4080 ho        1 MOL      0.407352
    182 O28         1.8760    0.7150    0.2870 oh        1 MOL     -0.813661
    183 H85         1.1430    1.2340    0.6190 ho        1 MOL      0.407352
    184 H86         1.6730    0.5770   -0.6360 ho        1 MOL      0.407352
@<TRIPOS>BOND
     1    1    2 1   
     2    1    4 1   
     3    1    5 1   
     4    1    6 1   
     5    2    3 2   
     6    2    7 1   
     7    7    8 1   
     8    7   15 1   
     9    8    9 1   
    10    8   11 1   
    11    8   16 1   
    12    9   10 2   
    13    9   19 1   
    14   11   12 1   
    15   11   17 1   
    16   11   18 1   
    17   12   13 1   
    18   12   14 1   
    19   19   20 1   
    20   19   24 1   
    21   20   21 1   
    22   20   23 1   
    23   20   25 1   
    24   21   22 2   
    25   21   29 1   
    26   23   26 1   
    27   23   27 1   
    28   23   28 1   
    29   29   30 1   
    30   29   37 1   
    31   30   31 1   
    32   30   33 1   
    33   30   38 1   
    34   31   32 2   
    35   31   41 1   
    36   33   34 1   
    37   33   39 1   
    38   33   40 1   
    39   34   35 1   
    40   34   36 1   
    41   41   42 1   
    42   41   45 1   
    43   42   43 1   
    44   42   46 1   
    45   42   47 1   
    46   43   44 2   
    47   43   48 1   
    48   48   49 1   
    49   48   56 1   
    50   49   50 1   
    51   49   52 1   
    52   49   57 1   
    53   50   51 2   
    54   50   62 1   
    55   52   53 1   
    56   52   58 1   
    57   52   59 1   
    58   53   54 1   
    59   53   55 2   
    60   54   60 1   
    61   54   61 1   
    62   62   63 1   
    63   62   66 1   
    64   63   64 1   
    65   63   67 1   
    66   63   68 1   
    67   64   65 2   
    68   64   69 1   
    69   69   70 1   
    70   69   76 1   
    71   70   71 1   
    72   70   73 1   
    73   70   77 1   
    74   71   72 2   
    75   71   83 1   
    76   73   74 1   
    77   73   75 1   
    78   73   78 1   
    79   74   80 1   
    80   74   81 1   
    81   74   82 1   
    82   75   79 1   
    83   83   84 1   
    84   83   91 1   
    85   84   85 1   
    86   84   87 1   
    87   84   92 1   
    88   85   86 2   
    89   85  102 1   
    90   87   88 1   
    91   87   89 1   
    92   87   93 1   
    93   88   90 1   
    94   88   94 1   
    95   88   95 1   
    96   89   96 1   
    97   89   97 1   
    98   89   98 1   
    99   90   99 1   
   100   90  100 1   
   101   90  101 1   
   102  102  103 1   
   103  102  110 1   
   104  103  104 1   
   105  103  106 1   
   106  103  111 1   
   107  104  105 2   
   108  104  114 1   
   109  106  107 1   
   110  106  112 1   
   111  106  113 1   
   112  107  108 1   
   113  107  109 1   
   114  114  115 1   
   115  114  125 1   
   116  115  116 1   
   117  115  118 1   
   118  115  126 1   
   119  116  117 2   
   120  116  134 1   
   121  118  119 1   
   122  118  127 1   
   123  118  128 1   
   124  119  120 ar  
   125  119  121 ar  
   126  120  122 ar  
   127  120  129 1   
   128  121  123 ar  
   129  121  130 1   
   130  122  124 ar  
   131  122  131 1   
   132  123  124 ar  
   133  123  132 1   
   134  124  133 1   
   135  134  135 1   
   136  134  140 1   
   137  135  136 1   
   138  135  138 1   
   139  135  141 1   
   140  136  137 2   
   141  136  148 1   
   142  138  139 1   
   143  138  142 1   
   144  138  143 1   
   145  139  140 1   
   146  139  144 1   
   147  139  145 1   
   148  140  146 1   
   149  140  147 1   
   150  148  149 1   
   151  148  157 1   
   152  149  150 1   
   153  149  152 1   
   154  149  158 1   
   155  150  151 2   
   156  150  163 1   
   157  152  153 1   
   158  152  159 1   
   159  152  160 1   
   160  153  154 1   
   161  153  161 1   
   162  153  162 1   
   163  154  155 1   
   164  154  156 1   
   165  163  164 1   
   166  163  168 1   
   167  164  165 1   
   168  164  166 1   
   169  164  167 1   
   170  170  171 1   
   171  170  172 1   
   172  173  174 1   
   173  173  175 1   
   174  176  177 1   
   175  176  178 1   
   176  179  180 1   
   177  179  181 1   
   178  182  183 1   
   179  182  184 1   
@<TRIPOS>SUBSTRUCTURE
     1 MOL         1 TEMP              0 ****  ****    0 ROOT
