@<TRIPOS>MOLECULE
MOL
  198   191     1     0     0
SMALL
resp


@<TRIPOS>ATOM
      1 C1         -4.1300    4.1740    5.0490 c3        1 MOL     -0.446800
      2 C2         -4.6790    3.2490    3.9230 c         1 MOL      0.555413
      3 O1         -4.0360    2.3320    3.5070 o         1 MOL     -0.455592
      4 H1         -4.8900    4.9070    5.3170 hc        1 MOL      0.115656
      5 H2         -3.8810    3.5730    5.9230 hc        1 MOL      0.115656
      6 H3         -3.2380    4.6890    4.6930 hc        1 MOL      0.115656
      7 N1         -5.8650    3.5530    3.4190 n         1 MOL     -0.421816
      8 C3         -6.6140    2.8200    2.3250 c3        1 MOL     -0.290244
      9 C4         -5.7990    2.2390    1.1620 c         1 MOL      0.521565
     10 O2         -4.8200    2.8300    0.6450 o         1 MOL     -0.517549
     11 C5         -7.7790    3.6730    1.7670 c3        1 MOL      0.052086
     12 C6         -7.4450    5.1990    1.5090 c         1 MOL      0.612425
     13 O3         -8.4420    5.9900    1.5590 o         1 MOL     -0.680199
     14 O4         -6.2840    5.4610    1.1480 o         1 MOL     -0.680199
     15 H4         -6.3180    4.3530    3.8250 hn        1 MOL      0.313286
     16 H5         -7.1110    2.0070    2.8560 h1        1 MOL      0.150675
     17 H6         -8.5790    3.5280    2.4850 hc        1 MOL      0.014991
     18 H7         -8.2160    3.2390    0.8700 hc        1 MOL      0.014991
     19 N2         -6.1040    0.9900    0.8230 n         1 MOL     -0.457756
     20 C7         -5.2810    0.2280   -0.1800 c3        1 MOL      0.124859
     21 C8         -5.3960    0.6780   -1.6320 c         1 MOL      0.367128
     22 O5         -6.3820    1.3330   -2.0390 o         1 MOL     -0.517365
     23 C9         -5.5170   -1.2780    0.0780 c3        1 MOL     -0.147187
     24 C10        -6.9970   -1.6650   -0.2500 c3        1 MOL      0.019622
     25 C11        -7.0710   -3.1870    0.0020 c3        1 MOL      0.186865
     26 C12        -8.5050   -3.5990   -0.0410 c3        1 MOL      0.005515
     27 N3         -9.0650   -3.5930   -1.3700 n4        1 MOL     -0.307409
     28 H8         -6.6140    0.4800    1.5350 hn        1 MOL      0.276267
     29 H9         -4.2480    0.4310    0.0950 h1        1 MOL      0.132983
     30 H10        -5.3910   -1.5450    1.1240 hc        1 MOL      0.046385
     31 H11        -4.8340   -1.8570   -0.5460 hc        1 MOL      0.046385
     32 H12        -7.0580   -1.5420   -1.3300 hc        1 MOL      0.011213
     33 H13        -7.7190   -1.0600    0.2950 hc        1 MOL      0.011213
     34 H14        -6.7500   -3.3690    1.0360 hc        1 MOL     -0.008030
     35 H15        -6.4560   -3.7030   -0.7360 hc        1 MOL     -0.008030
     36 H16        -9.1350   -2.9820    0.5980 hx        1 MOL      0.046216
     37 H17        -8.3630   -4.5880    0.3890 hx        1 MOL      0.046216
     38 H18        -9.9670   -4.0500   -1.4090 hn        1 MOL      0.317111
     39 H19        -9.1370   -2.7070   -1.8610 hn        1 MOL      0.317111
     40 H20        -8.4790   -4.2020   -1.9150 hn        1 MOL      0.317111
     41 N4         -4.3130    0.4960   -2.3890 n         1 MOL     -0.625916
     42 C13        -4.1430    1.0240   -3.7980 c3        1 MOL      0.554160
     43 C14        -3.5110   -0.0330   -4.8530 c         1 MOL      0.244833
     44 O6         -2.4970    0.2630   -5.4960 o         1 MOL     -0.479427
     45 C15        -3.0930    2.2230   -3.7710 c3        1 MOL     -0.679165
     46 C16        -3.5000    3.2280   -2.7270 c         1 MOL      1.019112
     47 O7         -4.4660    3.9450   -2.9320 o         1 MOL     -0.779505
     48 O8         -2.8880    3.4200   -1.6520 o         1 MOL     -0.779505
     49 H21        -3.5300    0.0050   -1.9820 hn        1 MOL      0.347517
     50 H22        -5.0980    1.4080   -4.1550 h1        1 MOL      0.002045
     51 H23        -2.8690    2.6830   -4.7330 hc        1 MOL      0.167916
     52 H24        -2.2260    1.6150   -3.5000 hc        1 MOL      0.167916
     53 N5         -3.9360   -1.2750   -4.9420 n         1 MOL     -0.116222
     54 C17        -5.2450   -1.7590   -4.4780 c3        1 MOL     -0.561326
     55 C18        -5.2180   -2.9170   -3.4880 c         1 MOL      0.727016
     56 O9         -6.3390   -3.3280   -3.0640 o         1 MOL     -0.673271
     57 H25        -3.4130   -1.8380   -5.6030 hn        1 MOL      0.274294
     58 H26        -5.7300   -2.1160   -5.3980 h1        1 MOL      0.202266
     59 H27        -5.8810   -0.9820   -4.0800 h1        1 MOL      0.202266
     60 N6         -4.0750   -3.4630   -3.1000 n         1 MOL     -0.285461
     61 C19        -4.0380   -4.6700   -2.2800 c3        1 MOL      0.189480
     62 C20        -2.7120   -4.6620   -1.3410 c         1 MOL      0.231906
     63 O10        -1.9600   -3.6280   -1.4840 o         1 MOL     -0.428788
     64 C21        -4.0500   -5.9530   -3.0930 c3        1 MOL     -0.109911
     65 C22        -3.1950   -5.9670   -4.3470 c         1 MOL      0.601933
     66 O11        -3.6690   -6.5630   -5.3630 o         1 MOL     -0.666496
     67 O12        -2.0310   -5.3800   -4.4140 o         1 MOL     -0.666496
     68 H28        -3.1860   -3.1030   -3.4170 hn        1 MOL      0.222582
     69 H29        -4.9120   -4.6350   -1.6240 h1        1 MOL     -0.079865
     70 H30        -5.0630   -6.1660   -3.4210 hc        1 MOL      0.012238
     71 H31        -3.7940   -6.8550   -2.5470 hc        1 MOL      0.012238
     72 N7         -2.4510   -5.7380   -0.5990 n         1 MOL     -0.155452
     73 C23        -1.2010   -5.9700    0.1650 c3        1 MOL     -0.299009
     74 C24        -0.9760   -5.2130    1.4400 c         1 MOL      0.480677
     75 O13         0.2150   -5.0590    1.8510 o         1 MOL     -0.541646
     76 H32        -3.1070   -6.5140   -0.5980 hn        1 MOL      0.235312
     77 H33        -0.3760   -5.6800   -0.4830 h1        1 MOL      0.165520
     78 H34        -1.1310   -7.0170    0.4380 h1        1 MOL      0.165520
     79 N8         -2.0590   -4.7370    2.0580 n         1 MOL     -0.063924
     80 C25        -2.0560   -4.1180    3.3760 c3        1 MOL     -0.253585
     81 C26        -1.6070   -2.6070    3.2560 c         1 MOL      0.503602
     82 O14        -2.2910   -1.8380    2.7000 o         1 MOL     -0.509248
     83 C27        -3.3890   -4.1700    4.2020 c3        1 MOL      0.435662
     84 C28        -4.6950   -3.8300    3.3900 c3        1 MOL     -0.313229
     85 O15        -3.4880   -5.4560    4.8240 oh        1 MOL     -0.652348
     86 H35        -2.9670   -4.9430    1.6700 hn        1 MOL      0.135098
     87 H36        -1.2780   -4.5910    3.9640 h1        1 MOL      0.087735
     88 H37        -3.3230   -3.5190    5.0730 h1        1 MOL      0.000088
     89 H38        -3.3820   -5.3610    5.7610 ho        1 MOL      0.395493
     90 H39        -4.6110   -2.8220    2.9810 hc        1 MOL      0.089269
     91 H40        -4.7910   -4.6160    2.6370 hc        1 MOL      0.089269
     92 H41        -5.5670   -3.8760    4.0470 hc        1 MOL      0.089269
     93 N9         -0.4350   -2.2690    3.7320 n         1 MOL     -0.423101
     94 C29         0.2170   -0.9690    3.5000 c3        1 MOL      0.043932
     95 C30         1.1180   -0.9880    2.2740 c         1 MOL      0.546230
     96 O16         1.1410    0.0710    1.5770 o         1 MOL     -0.551862
     97 C31         1.0600   -0.4870    4.7430 c3        1 MOL     -0.000743
     98 C32         0.2320   -0.4080    6.0690 c3        1 MOL      0.183023
     99 C33         1.6380    0.8900    4.4130 c3        1 MOL     -0.126933
    100 C34        -1.0030    0.4190    6.0230 c3        1 MOL     -0.412937
    101 H42         0.1470   -2.9750    4.1580 hn        1 MOL      0.264798
    102 H43        -0.5580   -0.2310    3.2870 h1        1 MOL      0.101549
    103 H44         1.8790   -1.1700    4.9590 hc        1 MOL     -0.012821
    104 H45         0.9230   -0.0810    6.8380 hc        1 MOL     -0.027747
    105 H46        -0.0240   -1.3970    6.4270 hc        1 MOL     -0.027747
    106 H47         0.9230    1.4790    3.8510 hc        1 MOL      0.040998
    107 H48         1.9490    1.4930    5.2630 hc        1 MOL      0.040998
    108 H49         2.4880    0.7610    3.7410 hc        1 MOL      0.040998
    109 H50        -1.3910    0.3010    7.0340 hc        1 MOL      0.105694
    110 H51        -0.7480    1.4790    5.9780 hc        1 MOL      0.105694
    111 H52        -1.5960    0.1440    5.1550 hc        1 MOL      0.105694
    112 N10         1.9120   -2.0260    2.1050 n         1 MOL     -0.278194
    113 C35         2.9630   -2.0460    1.0190 c3        1 MOL     -0.189187
    114 C36         4.2600   -2.6750    1.5630 c         1 MOL      0.627360
    115 O17         4.1920   -3.2610    2.6350 o         1 MOL     -0.531648
    116 C37         2.4910   -2.8200   -0.1590 c3        1 MOL      0.454468
    117 C38         1.5040   -1.9650   -1.0120 c3        1 MOL     -0.198241
    118 O18         3.5880   -3.1920   -1.0030 oh        1 MOL     -0.635979
    119 H53         1.9360   -2.8170    2.7250 hn        1 MOL      0.245519
    120 H54         3.2720   -1.1040    0.5560 h1        1 MOL      0.092621
    121 H55         1.9070   -3.7080    0.0950 h1        1 MOL      0.020405
    122 H56         3.8710   -2.3690   -1.4050 ho        1 MOL      0.380991
    123 H57         1.7190   -0.9000   -0.8780 hc        1 MOL      0.047656
    124 H58         1.6290   -2.2350   -2.0620 hc        1 MOL      0.047656
    125 H59         0.5760   -2.1540   -0.4840 hc        1 MOL      0.047656
    126 N11         5.4820   -2.5170    0.9770 n         1 MOL     -0.617428
    127 C39         6.8070   -2.9990    1.4900 c3        1 MOL      0.022709
    128 C40         7.8610   -1.8520    1.5490 c         1 MOL      0.656276
    129 O19         8.6010   -1.7960    2.5290 o         1 MOL     -0.562672
    130 C41         7.1470   -4.1970    0.6750 c3        1 MOL      0.343412
    131 C42         8.3010   -5.0130    1.3010 c3        1 MOL     -0.438933
    132 O20         7.6410   -3.9150   -0.6520 oh        1 MOL     -0.610910
    133 H60         5.4800   -2.0570    0.0880 hn        1 MOL      0.318866
    134 H61         6.6540   -3.2960    2.5300 h1        1 MOL      0.092995
    135 H62         6.2860   -4.8530    0.6590 h1        1 MOL      0.086645
    136 H63         8.6000   -3.8730   -0.5270 ho        1 MOL      0.364374
    137 H64         9.1850   -4.3860    1.3620 hc        1 MOL      0.104972
    138 H65         8.0180   -5.3150    2.3120 hc        1 MOL      0.104972
    139 H66         8.4470   -5.8650    0.6410 hc        1 MOL      0.104972
    140 N12         7.8470   -0.9220    0.5770 n         1 MOL     -0.406407
    141 C43         8.7040    0.2470    0.4400 c3        1 MOL     -0.175776
    142 C44         8.1270    1.3060   -0.4740 c         1 MOL      0.666926
    143 O21         7.2610    0.9040   -1.2480 o         1 MOL     -0.522800
    144 C45        10.1190   -0.1370   -0.0110 c3        1 MOL     -0.119920
    145 C46        10.2730   -0.7330   -1.3530 c3        1 MOL     -0.265760
    146 C47        11.6620   -1.2840   -1.5590 c3        1 MOL      0.050847
    147 C48        11.8000   -1.8820   -2.9920 c3        1 MOL     -0.073231
    148 N13        12.8150   -2.9840   -2.9500 n4        1 MOL     -0.213942
    149 H67         7.2210   -1.2140   -0.1650 hn        1 MOL      0.240790
    150 H68         8.8700    0.7130    1.4120 h1        1 MOL      0.120647
    151 H69        10.4590   -0.9100    0.6660 hc        1 MOL      0.073068
    152 H70        10.7870    0.7040    0.2060 hc        1 MOL      0.073068
    153 H71        10.1140    0.0570   -2.0870 hc        1 MOL      0.095680
    154 H72         9.4810   -1.4750   -1.4570 hc        1 MOL      0.095680
    155 H73        11.9700   -1.9730   -0.7640 hc        1 MOL      0.041015
    156 H74        12.3490   -0.4550   -1.3380 hc        1 MOL      0.041015
    157 H75        11.9580   -1.1080   -3.7360 hx        1 MOL      0.123176
    158 H76        10.8530   -2.3660   -3.2410 hx        1 MOL      0.123176
    159 H77        13.6990   -2.5420   -2.7650 hn        1 MOL      0.238930
    160 H78        12.6820   -3.6200   -2.1860 hn        1 MOL      0.238930
    161 H79        12.8050   -3.5550   -3.7890 hn        1 MOL      0.238930
    162 N14         8.5400    2.5210   -0.3560 n         1 MOL     -0.405501
    163 C49         8.1260    3.6230   -1.2860 c3        1 MOL      0.122137
    164 C50         6.6040    4.0330   -1.1820 c         1 MOL      0.397291
    165 O22         5.7620    3.4640   -1.8990 o         1 MOL     -0.500774
    166 C51         8.9010    4.9260   -1.1210 c3        1 MOL      0.127718
    167 C52        10.4000    4.8850   -1.5350 c3        1 MOL     -0.159083
    168 C53        11.1740    6.0210   -1.0510 c         1 MOL      0.687953
    169 O23        11.1880    7.0390   -1.7480 o         1 MOL     -0.658357
    170 O24        11.7270    6.0380    0.0370 o         1 MOL     -0.658357
    171 H80         9.1110    2.7010    0.4520 hn        1 MOL      0.279347
    172 H81         8.4030    3.2940   -2.2870 h1        1 MOL      0.034795
    173 H82         8.9660    5.2030   -0.0660 hc        1 MOL      0.001991
    174 H83         8.3740    5.7240   -1.6510 hc        1 MOL      0.001991
    175 H84        10.4400    4.8100   -2.6170 hc        1 MOL     -0.003133
    176 H85        10.7790    3.9990   -1.0230 hc        1 MOL     -0.003133
    177 N15         6.1160    4.6770   -0.0770 n         1 MOL     -0.431747
    178 C54         6.7160    4.7510    1.2080 c3        1 MOL      0.014970
    179 H86         6.3930    5.6630    1.7080 h1        1 MOL      0.035275
    180 H87         6.4150    3.8860    1.8000 h1        1 MOL      0.035275
    181 H88         7.8010    4.7590    1.1030 h1        1 MOL      0.035275
    182 H89         5.1190    4.8320   -0.1400 hn        1 MOL      0.317139
    183 Ca1        -4.4560    5.1340   -0.6130 Ca        1 MOL      1.757798
    184 O25        -3.6530    7.8530   -0.0670 oh        1 MOL     -0.859108
    185 H90        -3.3940    7.9060    0.8490 ho        1 MOL      0.423672
    186 H91        -3.4650    8.7260   -0.4220 ho        1 MOL      0.423672
    187 O26        -2.3180    4.9700    1.3010 oh        1 MOL     -0.859108
    188 H92        -1.9000    4.1470    1.5460 ho        1 MOL      0.423672
    189 H93        -1.9660    5.6200    1.9100 ho        1 MOL      0.423672
    190 O27        -6.8210    3.9370   -1.4800 oh        1 MOL     -0.859108
    191 H94        -7.3170    4.2320   -2.2410 ho        1 MOL      0.423672
    192 H95        -6.6670    3.0040   -1.6370 ho        1 MOL      0.423672
    193 O28        -5.8520    6.9490   -2.0050 oh        1 MOL     -0.859108
    194 H96        -6.0490    7.4370   -2.8020 ho        1 MOL      0.423672
    195 H97        -6.3460    7.3950   -1.3200 ho        1 MOL      0.423672
    196 O29        -2.9760    6.6440   -2.6540 oh        1 MOL     -0.859108
    197 H98        -2.5020    6.7290   -3.4880 ho        1 MOL      0.423672
    198 H99        -3.1380    7.5460   -2.3830 ho        1 MOL      0.423672
@<TRIPOS>BOND
     1    1    2 1   
     2    1    4 1   
     3    1    5 1   
     4    1    6 1   
     5    2    3 2   
     6    2    7 1   
     7    7    8 1   
     8    7   15 1   
     9    8    9 1   
    10    8   11 1   
    11    8   16 1   
    12    9   10 2   
    13    9   19 1   
    14   11   12 1   
    15   11   17 1   
    16   11   18 1   
    17   12   13 1   
    18   12   14 1   
    19   19   20 1   
    20   19   28 1   
    21   20   21 1   
    22   20   23 1   
    23   20   29 1   
    24   21   22 2   
    25   21   41 1   
    26   23   24 1   
    27   23   30 1   
    28   23   31 1   
    29   24   25 1   
    30   24   32 1   
    31   24   33 1   
    32   25   26 1   
    33   25   34 1   
    34   25   35 1   
    35   26   27 1   
    36   26   36 1   
    37   26   37 1   
    38   27   38 1   
    39   27   39 1   
    40   27   40 1   
    41   41   42 1   
    42   41   49 1   
    43   42   43 1   
    44   42   45 1   
    45   42   50 1   
    46   43   44 2   
    47   43   53 1   
    48   45   46 1   
    49   45   51 1   
    50   45   52 1   
    51   46   47 1   
    52   46   48 1   
    53   53   54 1   
    54   53   57 1   
    55   54   55 1   
    56   54   58 1   
    57   54   59 1   
    58   55   56 2   
    59   55   60 1   
    60   60   61 1   
    61   60   68 1   
    62   61   62 1   
    63   61   64 1   
    64   61   69 1   
    65   62   63 2   
    66   62   72 1   
    67   64   65 1   
    68   64   70 1   
    69   64   71 1   
    70   65   66 1   
    71   65   67 1   
    72   72   73 1   
    73   72   76 1   
    74   73   74 1   
    75   73   77 1   
    76   73   78 1   
    77   74   75 2   
    78   74   79 1   
    79   79   80 1   
    80   79   86 1   
    81   80   81 1   
    82   80   83 1   
    83   80   87 1   
    84   81   82 2   
    85   81   93 1   
    86   83   84 1   
    87   83   85 1   
    88   83   88 1   
    89   84   90 1   
    90   84   91 1   
    91   84   92 1   
    92   85   89 1   
    93   93   94 1   
    94   93  101 1   
    95   94   95 1   
    96   94   97 1   
    97   94  102 1   
    98   95   96 2   
    99   95  112 1   
   100   97   98 1   
   101   97   99 1   
   102   97  103 1   
   103   98  100 1   
   104   98  104 1   
   105   98  105 1   
   106   99  106 1   
   107   99  107 1   
   108   99  108 1   
   109  100  109 1   
   110  100  110 1   
   111  100  111 1   
   112  112  113 1   
   113  112  119 1   
   114  113  114 1   
   115  113  116 1   
   116  113  120 1   
   117  114  115 2   
   118  114  126 1   
   119  116  117 1   
   120  116  118 1   
   121  116  121 1   
   122  117  123 1   
   123  117  124 1   
   124  117  125 1   
   125  118  122 1   
   126  126  127 1   
   127  126  133 1   
   128  127  128 1   
   129  127  130 1   
   130  127  134 1   
   131  128  129 2   
   132  128  140 1   
   133  130  131 1   
   134  130  132 1   
   135  130  135 1   
   136  131  137 1   
   137  131  138 1   
   138  131  139 1   
   139  132  136 1   
   140  140  141 1   
   141  140  149 1   
   142  141  142 1   
   143  141  144 1   
   144  141  150 1   
   145  142  143 2   
   146  142  162 1   
   147  144  145 1   
   148  144  151 1   
   149  144  152 1   
   150  145  146 1   
   151  145  153 1   
   152  145  154 1   
   153  146  147 1   
   154  146  155 1   
   155  146  156 1   
   156  147  148 1   
   157  147  157 1   
   158  147  158 1   
   159  148  159 1   
   160  148  160 1   
   161  148  161 1   
   162  162  163 1   
   163  162  171 1   
   164  163  164 1   
   165  163  166 1   
   166  163  172 1   
   167  164  165 2   
   168  164  177 1   
   169  166  167 1   
   170  166  173 1   
   171  166  174 1   
   172  167  168 1   
   173  167  175 1   
   174  167  176 1   
   175  168  169 1   
   176  168  170 1   
   177  177  178 1   
   178  177  182 1   
   179  178  179 1   
   180  178  180 1   
   181  178  181 1   
   182  184  185 1   
   183  184  186 1   
   184  187  188 1   
   185  187  189 1   
   186  190  191 1   
   187  190  192 1   
   188  193  194 1   
   189  193  195 1   
   190  196  197 1   
   191  196  198 1   
@<TRIPOS>SUBSTRUCTURE
     1 MOL         1 TEMP              0 ****  ****    0 ROOT
