@<TRIPOS>MOLECULE
MOL
  179   176     1     0     0
SMALL
resp


@<TRIPOS>ATOM
      1 C1          3.7230    0.4910    5.8100 c3        1 MOL     -0.312119
      2 C2          3.3590    0.7120    4.3040 c         1 MOL      0.593005
      3 O1          4.1840    0.4350    3.4040 o         1 MOL     -0.567201
      4 H1          2.9990   -0.1850    6.2640 hc        1 MOL      0.087898
      5 H2          4.7210    0.0560    5.8830 hc        1 MOL      0.087898
      6 H3          3.7040    1.4470    6.3340 hc        1 MOL      0.087898
      7 N1          2.3220    1.4240    4.0650 n         1 MOL     -0.444138
      8 C3          1.7070    1.6340    2.7270 c3        1 MOL     -0.022697
      9 C4          2.1350    2.9220    2.0390 c         1 MOL      0.560971
     10 O2          1.5870    4.0020    2.3550 o         1 MOL     -0.522138
     11 C5          0.1670    1.6490    2.9030 c3        1 MOL     -0.247302
     12 C6         -0.5400    1.6810    1.5110 c         1 MOL      0.713524
     13 O3         -1.7790    1.5660    1.3890 o         1 MOL     -0.741161
     14 O4          0.1920    1.7610    0.4630 o         1 MOL     -0.741161
     15 H4          1.9760    1.9070    4.8830 hn        1 MOL      0.304299
     16 H5          1.9250    0.7390    2.1310 h1        1 MOL      0.036585
     17 H6         -0.1530    2.5150    3.4830 hc        1 MOL      0.070835
     18 H7          0.0210    0.7150    3.4340 hc        1 MOL      0.070835
     19 N2          3.0590    2.9730    1.0800 n         1 MOL     -0.378079
     20 C7          3.6440    4.2070    0.5560 c3        1 MOL      0.043087
     21 C8          2.5530    5.0070   -0.2750 c         1 MOL      0.410313
     22 O5          2.5480    6.2380   -0.1800 o         1 MOL     -0.536557
     23 C9          4.8610    3.9350   -0.3310 c3        1 MOL      0.039815
     24 C10         5.8640    5.0760   -0.2060 c3        1 MOL     -0.010810
     25 C11         7.1130    4.6240   -1.0130 c3        1 MOL      0.002928
     26 C12         8.1910    5.7490   -1.2160 c3        1 MOL      0.076515
     27 N3          9.2980    5.3040   -2.0350 n4        1 MOL     -0.250774
     28 H8          3.4500    2.0870    0.7850 hn        1 MOL      0.294831
     29 H9          3.9630    4.8770    1.3640 h1        1 MOL      0.073057
     30 H10         4.4870    3.8100   -1.3480 hc        1 MOL      0.003707
     31 H11         5.2090    2.9560    0.0120 hc        1 MOL      0.003707
     32 H12         6.2700    5.2700    0.7830 hc        1 MOL      0.032037
     33 H13         5.5000    6.0370   -0.5750 hc        1 MOL      0.032037
     34 H14         6.7650    4.3320   -1.9980 hc        1 MOL      0.016870
     35 H15         7.5010    3.7380   -0.5090 hc        1 MOL      0.016870
     36 H16         8.5650    6.2580   -0.3240 hx        1 MOL      0.053944
     37 H17         7.5830    6.5190   -1.7010 hx        1 MOL      0.053944
     38 H18        10.0140    4.8480   -1.4960 hn        1 MOL      0.253747
     39 H19         8.9110    4.5840   -2.6290 hn        1 MOL      0.253747
     40 H20         9.7140    6.0390   -2.5730 hn        1 MOL      0.253747
     41 N4          1.5910    4.3090   -0.9490 n         1 MOL     -0.303349
     42 C13         0.5810    4.9520   -1.7740 c3        1 MOL      0.052917
     43 C14        -0.6350    5.4100   -0.8540 c         1 MOL      0.356621
     44 O6         -1.5420    6.0030   -1.4490 o         1 MOL     -0.520500
     45 C15         0.0260    4.0820   -2.8960 c3        1 MOL     -0.314746
     46 C16        -0.5470    2.7180   -2.6000 c         1 MOL      0.684972
     47 O7         -1.6710    2.7210   -2.0370 o         1 MOL     -0.690297
     48 O8          0.1140    1.6540   -2.7080 o         1 MOL     -0.690297
     49 H21         1.5800    3.3050   -0.9330 hn        1 MOL      0.243276
     50 H22         1.0120    5.8510   -2.1950 h1        1 MOL      0.105964
     51 H23         0.8880    3.9070   -3.5430 hc        1 MOL      0.087866
     52 H24        -0.6000    4.7350   -3.4990 hc        1 MOL      0.087866
     53 N5         -0.5880    5.1780    0.4860 n         1 MOL     -0.154151
     54 C17        -1.6420    5.4010    1.4840 c3        1 MOL     -0.136549
     55 C18        -3.0720    4.9410    1.1880 c         1 MOL      0.466157
     56 O9         -3.9790    5.3550    1.9040 o         1 MOL     -0.581212
     57 H25         0.2560    4.7310    0.8150 hn        1 MOL      0.199655
     58 H26        -1.6600    6.4240    1.8450 h1        1 MOL      0.102560
     59 H27        -1.2600    4.7950    2.3180 h1        1 MOL      0.102560
     60 N6         -3.3280    4.1450    0.1780 n         1 MOL     -0.067326
     61 C19        -4.6230    3.9130   -0.3800 c3        1 MOL      0.029156
     62 C20        -4.8120    2.3870   -0.8300 c         1 MOL      0.481871
     63 O10        -3.9740    1.5120   -0.6790 o         1 MOL     -0.511504
     64 C21        -4.8070    4.8010   -1.6320 c3        1 MOL     -0.438383
     65 C22        -6.2270    5.0430   -2.0160 c         1 MOL      0.742935
     66 N7         -7.0930    5.5920   -1.1970 n         1 MOL     -0.828022
     67 O11        -6.7100    4.6780   -3.0560 o         1 MOL     -0.594051
     68 H28        -2.5530    4.0450   -0.4690 hn        1 MOL      0.228592
     69 H29        -5.4530    4.1150    0.2960 h1        1 MOL      0.051762
     70 H30        -4.2070    4.5260   -2.5000 hc        1 MOL      0.146264
     71 H31        -4.3920    5.7750   -1.3750 hc        1 MOL      0.146264
     72 H32        -6.8020    6.0470   -0.3420 hn        1 MOL      0.367623
     73 H33        -7.9550    5.9260   -1.6080 hn        1 MOL      0.367623
     74 N8         -5.9960    2.0540   -1.2350 n         1 MOL     -0.367499
     75 C23        -6.3870    0.6500   -1.6050 c3        1 MOL     -0.024318
     76 C24        -6.1740   -0.3860   -0.4630 c         1 MOL      0.497452
     77 O12        -6.3540   -0.0130    0.6900 o         1 MOL     -0.461686
     78 H34        -6.6600    2.8200   -1.2270 hn        1 MOL      0.300560
     79 H35        -5.9600    0.3740   -2.5710 h1        1 MOL      0.059840
     80 H36        -7.4630    0.6440   -1.7650 h1        1 MOL      0.059840
     81 N9         -5.8580   -1.6310   -0.7950 n         1 MOL     -0.492485
     82 C25        -5.2710   -2.5920    0.1410 c3        1 MOL      0.141681
     83 C26        -3.9500   -2.1190    0.7550 c         1 MOL      0.301982
     84 O13        -3.4860   -1.0800    0.3840 o         1 MOL     -0.225668
     85 C27        -5.2020   -3.9510   -0.6030 c3        1 MOL     -0.217506
     86 C28        -6.5670   -4.3610   -0.9610 ca        1 MOL      0.222949
     87 C29        -6.9510   -4.3040   -2.2820 ca        1 MOL     -0.220134
     88 C30        -7.3890   -5.0100    0.0200 ca        1 MOL     -0.220134
     89 C31        -8.2620   -4.7380   -2.6680 ca        1 MOL     -0.282290
     90 C32        -8.6880   -5.4630   -0.3750 ca        1 MOL     -0.282290
     91 C33        -9.0800   -5.3840   -1.7570 ca        1 MOL      0.379777
     92 O14       -10.2810   -5.8880   -2.1150 oh        1 MOL     -0.509283
     93 H37        -5.8150   -1.9170   -1.7670 hn        1 MOL      0.276927
     94 H38        -5.9630   -2.8220    0.9510 h1        1 MOL      0.062175
     95 H39        -4.7510   -4.7740   -0.0350 hc        1 MOL      0.038722
     96 H40        -4.6550   -3.7330   -1.5160 hc        1 MOL      0.038722
     97 H41        -6.3440   -3.9660   -3.1080 ha        1 MOL      0.157424
     98 H42        -7.1870   -5.1170    1.0750 ha        1 MOL      0.157424
     99 H43        -8.6450   -4.6840   -3.6790 ha        1 MOL      0.164165
    100 H44        -9.3800   -5.8630    0.3460 ha        1 MOL      0.164165
    101 H45       -10.8170   -6.1840   -1.3780 ho        1 MOL      0.385786
    102 N10        -3.5260   -2.8180    1.7800 n         1 MOL     -0.499216
    103 C34        -2.4850   -2.5710    2.8250 c3        1 MOL      0.102657
    104 C35        -1.1070   -2.0900    2.2690 c         1 MOL      0.479236
    105 O15        -0.9020   -1.3410    1.3060 o         1 MOL     -0.524171
    106 C36        -2.9670   -1.4880    3.8610 c3        1 MOL      0.172782
    107 C37        -2.1020   -1.2320    5.1330 c3        1 MOL     -0.112991
    108 C38        -4.4740   -1.6110    4.2290 c3        1 MOL     -0.101092
    109 C39        -2.1170   -2.2600    6.2310 c3        1 MOL     -0.312404
    110 H46        -4.0410   -3.6710    1.9130 hn        1 MOL      0.291781
    111 H47        -2.3110   -3.4380    3.4570 h1        1 MOL      0.050073
    112 H48        -2.9890   -0.5330    3.3400 hc        1 MOL      0.018900
    113 H49        -2.4070   -0.2930    5.5930 hc        1 MOL      0.075711
    114 H50        -1.0790   -1.0540    4.8010 hc        1 MOL      0.075711
    115 H51        -4.7680   -2.5760    4.6480 hc        1 MOL      0.027991
    116 H52        -4.7700   -0.8870    4.9900 hc        1 MOL      0.027991
    117 H53        -5.1380   -1.3990    3.3940 hc        1 MOL      0.027991
    118 H54        -3.1050   -2.2980    6.6780 hc        1 MOL      0.081274
    119 H55        -1.8920   -3.2380    5.7910 hc        1 MOL      0.081274
    120 H56        -1.4310   -1.9110    7.0090 hc        1 MOL      0.081274
    121 N11        -0.0170   -2.6100    2.9120 n         1 MOL     -0.644781
    122 C40         1.3710   -2.1450    2.7310 c3        1 MOL      0.194798
    123 C41         2.1080   -2.4960    1.4250 c         1 MOL      0.425124
    124 O16         3.2990   -2.2650    1.3760 o         1 MOL     -0.514206
    125 C42         2.3250   -2.7100    3.8690 c3        1 MOL     -0.102402
    126 O17         1.6130   -2.5910    5.1180 oh        1 MOL     -0.592401
    127 H57        -0.1910   -3.2290    3.6880 hn        1 MOL      0.324365
    128 H58         1.4210   -1.0630    2.8840 h1        1 MOL      0.244990
    129 H59         3.2140   -2.0930    3.9970 h1        1 MOL      0.136329
    130 H60         2.4790   -3.7700    3.6410 h1        1 MOL      0.136329
    131 H61         1.6670   -3.3920    5.6640 ho        1 MOL      0.392305
    132 N12         1.3450   -2.9070    0.3680 n         1 MOL     -0.459553
    133 C43         1.8450   -2.9540   -1.0040 c3        1 MOL      0.251316
    134 C44         1.7920   -1.6140   -1.7790 c         1 MOL      0.447227
    135 O18         0.7470   -0.9470   -1.7380 o         1 MOL     -0.447182
    136 C45         1.2760   -4.1890   -1.7740 c3        1 MOL     -0.397319
    137 H62         0.3470   -2.8400    0.5090 hn        1 MOL      0.268079
    138 H63         2.9130   -3.1440   -0.9230 h1        1 MOL      0.083002
    139 H64         0.2080   -3.9930   -1.6530 hc        1 MOL      0.100187
    140 H65         1.4570   -4.2750   -2.8480 hc        1 MOL      0.100187
    141 H66         1.5520   -5.0850   -1.2130 hc        1 MOL      0.100187
    142 N13         2.7590   -1.2150   -2.5870 n         1 MOL     -0.528398
    143 C46         4.0850   -1.7480   -2.5400 c3        1 MOL      0.219556
    144 C47         4.2850   -3.1480   -3.3140 c         1 MOL      0.666491
    145 O19         3.6670   -3.3040   -4.3640 o         1 MOL     -0.579797
    146 C48         4.9700   -0.6940   -3.3090 c3        1 MOL     -0.396528
    147 H67         2.5410   -0.4110   -3.1560 hn        1 MOL      0.332854
    148 H68         4.4640   -1.8500   -1.5220 h1        1 MOL      0.097407
    149 H69         4.8670    0.2650   -2.7900 hc        1 MOL      0.113785
    150 H70         6.0280   -0.9330   -3.4130 hc        1 MOL      0.113785
    151 H71         4.6930   -0.7430   -4.3580 hc        1 MOL      0.113785
    152 N14         5.0700   -4.1510   -2.7820 n         1 MOL     -0.694064
    153 C49         5.7010   -4.1120   -1.4890 c3        1 MOL      0.010009
    154 C50         5.9170   -5.5540   -0.9350 c         1 MOL      0.512280
    155 O20         5.7510   -5.8310    0.2450 o         1 MOL     -0.540727
    156 C51         7.0520   -3.3750   -1.6230 c3        1 MOL      0.119513
    157 C52         7.7850   -3.2090   -0.2870 c3        1 MOL     -0.435487
    158 C53         9.0870   -2.4260   -0.5000 c         1 MOL      0.767250
    159 O21         9.3480   -1.3580    0.0770 o         1 MOL     -0.682234
    160 O22        10.0580   -2.9680   -1.1550 o         1 MOL     -0.682234
    161 H72         5.2530   -4.9240   -3.4100 hn        1 MOL      0.327043
    162 H73         5.0560   -3.5920   -0.7800 h1        1 MOL      0.064067
    163 H74         6.9180   -2.3640   -1.9950 hc        1 MOL     -0.016160
    164 H75         7.6460   -3.8930   -2.3710 hc        1 MOL     -0.016160
    165 H76         8.0780   -4.1340    0.2200 hc        1 MOL      0.114168
    166 H77         7.0740   -2.7040    0.3740 hc        1 MOL      0.114168
    167 N15         6.1240   -6.5180   -1.7430 n         1 MOL     -0.222479
    168 C54         6.2970   -7.8980   -1.3640 c3        1 MOL     -0.257700
    169 H78         5.3410   -8.3080   -1.0390 h1        1 MOL      0.116174
    170 H79         6.6640   -8.4670   -2.2180 h1        1 MOL      0.116174
    171 H80         7.0160   -7.9640   -0.5470 h1        1 MOL      0.116174
    172 H81         6.1180   -6.2650   -2.7200 hn        1 MOL      0.251302
    173 Ca1        -1.5600    0.3240   -0.9620 Ca        1 MOL      1.563314
    174 O23        -1.7150   -2.4160   -1.2830 oh        1 MOL     -0.832982
    175 H82        -1.7390   -3.2200   -0.7620 ho        1 MOL      0.423589
    176 H83        -1.5790   -2.7180   -2.1750 ho        1 MOL      0.423589
    177 O24        -2.6270   -0.3880   -3.1450 oh        1 MOL     -0.832982
    178 H84        -2.4500   -0.0070   -4.0070 ho        1 MOL      0.423589
    179 H85        -3.5350   -0.6860   -3.1860 ho        1 MOL      0.423589
@<TRIPOS>BOND
     1    1    2 1   
     2    1    4 1   
     3    1    5 1   
     4    1    6 1   
     5    2    3 2   
     6    2    7 1   
     7    7    8 1   
     8    7   15 1   
     9    8    9 1   
    10    8   11 1   
    11    8   16 1   
    12    9   10 2   
    13    9   19 1   
    14   11   12 1   
    15   11   17 1   
    16   11   18 1   
    17   12   13 1   
    18   12   14 1   
    19   19   20 1   
    20   19   28 1   
    21   20   21 1   
    22   20   23 1   
    23   20   29 1   
    24   21   22 2   
    25   21   41 1   
    26   23   24 1   
    27   23   30 1   
    28   23   31 1   
    29   24   25 1   
    30   24   32 1   
    31   24   33 1   
    32   25   26 1   
    33   25   34 1   
    34   25   35 1   
    35   26   27 1   
    36   26   36 1   
    37   26   37 1   
    38   27   38 1   
    39   27   39 1   
    40   27   40 1   
    41   41   42 1   
    42   41   49 1   
    43   42   43 1   
    44   42   45 1   
    45   42   50 1   
    46   43   44 2   
    47   43   53 1   
    48   45   46 1   
    49   45   51 1   
    50   45   52 1   
    51   46   47 1   
    52   46   48 1   
    53   53   54 1   
    54   53   57 1   
    55   54   55 1   
    56   54   58 1   
    57   54   59 1   
    58   55   56 2   
    59   55   60 1   
    60   60   61 1   
    61   60   68 1   
    62   61   62 1   
    63   61   64 1   
    64   61   69 1   
    65   62   63 2   
    66   62   74 1   
    67   64   65 1   
    68   64   70 1   
    69   64   71 1   
    70   65   66 1   
    71   65   67 2   
    72   66   72 1   
    73   66   73 1   
    74   74   75 1   
    75   74   78 1   
    76   75   76 1   
    77   75   79 1   
    78   75   80 1   
    79   76   77 2   
    80   76   81 1   
    81   81   82 1   
    82   81   93 1   
    83   82   83 1   
    84   82   85 1   
    85   82   94 1   
    86   83   84 2   
    87   83  102 1   
    88   85   86 1   
    89   85   95 1   
    90   85   96 1   
    91   86   87 ar  
    92   86   88 ar  
    93   87   89 ar  
    94   87   97 1   
    95   88   90 ar  
    96   88   98 1   
    97   89   91 ar  
    98   89   99 1   
    99   90   91 ar  
   100   90  100 1   
   101   91   92 1   
   102   92  101 1   
   103  102  103 1   
   104  102  110 1   
   105  103  104 1   
   106  103  106 1   
   107  103  111 1   
   108  104  105 2   
   109  104  121 1   
   110  106  107 1   
   111  106  108 1   
   112  106  112 1   
   113  107  109 1   
   114  107  113 1   
   115  107  114 1   
   116  108  115 1   
   117  108  116 1   
   118  108  117 1   
   119  109  118 1   
   120  109  119 1   
   121  109  120 1   
   122  121  122 1   
   123  121  127 1   
   124  122  123 1   
   125  122  125 1   
   126  122  128 1   
   127  123  124 2   
   128  123  132 1   
   129  125  126 1   
   130  125  129 1   
   131  125  130 1   
   132  126  131 1   
   133  132  133 1   
   134  132  137 1   
   135  133  134 1   
   136  133  136 1   
   137  133  138 1   
   138  134  135 2   
   139  134  142 1   
   140  136  139 1   
   141  136  140 1   
   142  136  141 1   
   143  142  143 1   
   144  142  147 1   
   145  143  144 1   
   146  143  146 1   
   147  143  148 1   
   148  144  145 2   
   149  144  152 1   
   150  146  149 1   
   151  146  150 1   
   152  146  151 1   
   153  152  153 1   
   154  152  161 1   
   155  153  154 1   
   156  153  156 1   
   157  153  162 1   
   158  154  155 2   
   159  154  167 1   
   160  156  157 1   
   161  156  163 1   
   162  156  164 1   
   163  157  158 1   
   164  157  165 1   
   165  157  166 1   
   166  158  159 1   
   167  158  160 1   
   168  167  168 1   
   169  167  172 1   
   170  168  169 1   
   171  168  170 1   
   172  168  171 1   
   173  174  175 1   
   174  174  176 1   
   175  177  178 1   
   176  177  179 1   
@<TRIPOS>SUBSTRUCTURE
     1 MOL         1 TEMP              0 ****  ****    0 ROOT
