@<TRIPOS>MOLECULE
MOL
  195   189     1     0     0
SMALL
resp


@<TRIPOS>ATOM
      1 C1          4.4760   -5.8030    1.2830 c3        1 MOL     -0.491998
      2 C2          3.7610   -4.5690    0.6930 c         1 MOL      0.937742
      3 O1          4.4090   -3.6460    0.2530 o         1 MOL     -0.707081
      4 H1          4.2300   -6.6830    0.6890 hc        1 MOL      0.121946
      5 H2          5.5540   -5.6420    1.2650 hc        1 MOL      0.121946
      6 H3          4.1480   -5.9560    2.3110 hc        1 MOL      0.121946
      7 N1          2.4570   -4.4730    0.8440 n         1 MOL     -0.736281
      8 C3          1.4540   -5.4990    1.3470 c3        1 MOL     -0.035912
      9 C4          0.9950   -6.2910    0.1600 c         1 MOL      0.466985
     10 O2          0.4440   -7.3800    0.3690 o         1 MOL     -0.548787
     11 C5          0.2830   -4.8350    2.1050 c3        1 MOL     -0.034543
     12 C6          0.5200   -3.6650    3.0890 c         1 MOL      0.911124
     13 O3          0.2260   -2.5860    2.6380 o         1 MOL     -0.831564
     14 O4          0.9380   -3.8020    4.2170 o         1 MOL     -0.831564
     15 H4          2.0740   -3.6390    0.4350 hn        1 MOL      0.378097
     16 H5          1.9380   -6.1750    2.0660 h1        1 MOL      0.088761
     17 H6         -0.3200   -5.5520    2.6560 hc        1 MOL      0.034342
     18 H7         -0.3820   -4.4600    1.3290 hc        1 MOL      0.034342
     19 N2          1.0410   -5.7180   -1.0710 n         1 MOL     -0.018529
     20 C7          0.6170   -6.4650   -2.2190 c3        1 MOL     -0.569131
     21 C8         -0.8730   -6.2980   -2.4780 c         1 MOL      0.546271
     22 O5         -1.4420   -6.9770   -3.3270 o         1 MOL     -0.556423
     23 C9          1.4610   -6.1620   -3.4620 c3        1 MOL      0.268023
     24 C10         1.3340   -4.7090   -4.0330 c3        1 MOL      0.155521
     25 C11         2.9470   -6.4180   -3.2190 c3        1 MOL     -0.221222
     26 C12         1.6970   -4.6770   -5.5430 c3        1 MOL     -0.310299
     27 H8          1.6640   -4.9340   -1.2220 hn        1 MOL      0.206249
     28 H9          0.8160   -7.5210   -2.0280 h1        1 MOL      0.202694
     29 H10         1.1120   -6.8390   -4.2430 hc        1 MOL      0.010387
     30 H11         1.8630   -3.9460   -3.4750 hc        1 MOL      0.001317
     31 H12         0.3030   -4.3550   -3.9630 hc        1 MOL      0.001317
     32 H13         3.3440   -5.9150   -2.3340 hc        1 MOL      0.027413
     33 H14         2.9750   -7.4850   -2.9870 hc        1 MOL      0.027413
     34 H15         3.4800   -6.2630   -4.1550 hc        1 MOL      0.027413
     35 H16         0.9340   -5.1950   -6.1380 hc        1 MOL      0.061548
     36 H17         1.7690   -3.6320   -5.8390 hc        1 MOL      0.061548
     37 H18         2.6400   -5.1810   -5.7330 hc        1 MOL      0.061548
     38 N3         -1.5900   -5.3940   -1.8020 n         1 MOL     -0.139605
     39 C13        -3.0300   -5.2690   -2.0240 c3        1 MOL      0.084062
     40 C14        -3.7350   -4.6020   -0.8370 c         1 MOL      0.490699
     41 O6         -3.0730   -4.1380    0.1410 o         1 MOL     -0.560843
     42 C15        -3.2780   -4.4010   -3.3330 c3        1 MOL     -0.283785
     43 C16        -4.7630   -4.2330   -3.7740 c         1 MOL      0.728356
     44 O7         -5.1260   -3.1780   -4.3490 o         1 MOL     -0.712473
     45 O8         -5.5920   -5.1150   -3.5210 o         1 MOL     -0.712473
     46 H19        -1.1660   -4.8890   -1.0310 hn        1 MOL      0.115679
     47 H20        -3.4980   -6.2480   -2.1560 h1        1 MOL      0.025270
     48 H21        -2.8250   -4.9530   -4.1610 hc        1 MOL      0.053875
     49 H22        -2.8480   -3.4050   -3.3620 hc        1 MOL      0.053875
     50 N4         -5.0700   -4.5210   -0.8360 n         1 MOL     -0.459453
     51 C17        -5.8600   -3.8660    0.2810 c3        1 MOL     -0.018346
     52 C18        -5.9220   -2.3350    0.4090 c         1 MOL      0.795151
     53 O9         -5.6210   -1.5630   -0.5370 o         1 MOL     -0.549682
     54 H23        -5.4960   -4.8360   -1.7010 hn        1 MOL      0.303529
     55 H24        -5.3900   -4.2040    1.2050 h1        1 MOL      0.056735
     56 H25        -6.8880   -4.2110    0.2160 h1        1 MOL      0.056735
     57 N5         -6.3440   -1.7930    1.5740 n         1 MOL     -0.823060
     58 C19        -6.7530   -0.3780    1.7220 c3        1 MOL      0.587096
     59 C20        -7.9590    0.0250    0.7960 c         1 MOL      0.268049
     60 O10        -8.9860   -0.7210    0.6630 o         1 MOL     -0.526930
     61 C21        -7.0790   -0.0290    3.1490 c3        1 MOL     -0.451253
     62 C22        -5.9800   -0.3320    4.1440 c         1 MOL      0.806108
     63 O11        -4.9400    0.2820    4.0640 o         1 MOL     -0.753002
     64 O12        -6.2440   -1.0910    5.1130 o         1 MOL     -0.753002
     65 H26        -6.5810   -2.4190    2.3310 hn        1 MOL      0.337718
     66 H27        -5.9710    0.3120    1.4140 h1        1 MOL     -0.076704
     67 H28        -7.8980   -0.6510    3.5000 hc        1 MOL      0.071138
     68 H29        -7.3000    1.0190    3.3050 hc        1 MOL      0.071138
     69 N6         -7.8030    1.0670   -0.0480 n         1 MOL     -0.336172
     70 C23        -6.7000    2.0100   -0.0690 c3        1 MOL      0.009301
     71 C24        -6.8500    3.0530   -1.2080 c         1 MOL      0.489882
     72 O13        -7.5570    2.7760   -2.2210 o         1 MOL     -0.523077
     73 H30        -8.6190    1.1740   -0.6290 hn        1 MOL      0.273043
     74 H31        -5.7450    1.4880   -0.1250 h1        1 MOL      0.102319
     75 H32        -6.6310    2.6140    0.8340 h1        1 MOL      0.102319
     76 N7         -6.1680    4.1870   -1.1790 n         1 MOL     -0.543588
     77 C25        -5.3150    4.7460   -0.1630 c3        1 MOL      0.322334
     78 C26        -4.2450    3.7910    0.2840 c         1 MOL      0.405774
     79 O14        -4.2420    3.3500    1.4260 o         1 MOL     -0.473216
     80 C27        -6.0450    5.5690    0.9540 c3        1 MOL     -0.401794
     81 C28        -5.1550    6.4440    1.8380 c3        1 MOL      0.050756
     82 C29        -4.5480    7.6340    1.1450 c         1 MOL      0.594188
     83 N8         -5.1900    8.7320    1.2830 n         1 MOL     -0.774597
     84 O15        -3.4090    7.5270    0.7110 o         1 MOL     -0.544980
     85 H33        -6.1910    4.6540   -2.0690 hn        1 MOL      0.297874
     86 H34        -4.6940    5.5040   -0.6350 h1        1 MOL      0.023390
     87 H35        -6.6060    5.0080    1.6940 hc        1 MOL      0.097141
     88 H36        -6.7450    6.2100    0.4150 hc        1 MOL      0.097141
     89 H37        -4.3540    5.9090    2.3400 hc        1 MOL      0.029806
     90 H38        -5.7050    6.8430    2.6990 hc        1 MOL      0.029806
     91 H39        -6.1520    8.7780    1.5750 hn        1 MOL      0.358440
     92 H40        -4.6580    9.5690    1.0980 hn        1 MOL      0.358440
     93 N9         -3.3000    3.5230   -0.6740 n         1 MOL     -0.397762
     94 C30        -2.0990    2.7680   -0.4150 c3        1 MOL      0.012089
     95 C31        -1.5930    2.1080   -1.6800 c         1 MOL      0.464791
     96 O16        -1.9060    2.5010   -2.8250 o         1 MOL     -0.515237
     97 C32        -0.9960    3.8100    0.0680 c3        1 MOL      0.135898
     98 C33        -0.9100    3.9830    1.5600 c3        1 MOL     -0.234691
     99 C34        -0.9300    5.1390   -0.5680 c3        1 MOL     -0.234691
    100 H41        -3.4440    3.7810   -1.6380 hn        1 MOL      0.252744
    101 H42        -2.3080    1.9640    0.2900 h1        1 MOL      0.123195
    102 H43         0.0340    3.4700   -0.0870 hc        1 MOL      0.027318
    103 H44        -1.7230    4.5400    2.0500 hc        1 MOL      0.060868
    104 H45        -0.8610    3.0010    2.0120 hc        1 MOL      0.060868
    105 H46        -0.0100    4.5190    1.8710 hc        1 MOL      0.060868
    106 H47        -1.8070    5.7280   -0.3050 hc        1 MOL      0.060868
    107 H48        -0.1070    5.7730   -0.2480 hc        1 MOL      0.060868
    108 H49        -0.8200    5.0630   -1.6560 hc        1 MOL      0.060868
    109 N10        -0.7130    1.0980   -1.5120 n         1 MOL     -0.265540
    110 C35        -0.3390    0.0870   -2.5540 c3        1 MOL      0.074273
    111 C36         1.1530    0.1840   -2.8660 c         1 MOL      0.492307
    112 O17         1.9220   -0.7810   -2.8640 o         1 MOL     -0.480905
    113 C37        -0.8330   -1.3320   -2.0860 c3        1 MOL     -0.263969
    114 C38        -0.1530   -1.8490   -0.7900 c         1 MOL      0.579274
    115 N11        -0.5800   -1.2890    0.3240 n         1 MOL     -0.551742
    116 O18         0.7080   -2.7090   -0.7960 o         1 MOL     -0.609238
    117 H50        -0.5080    0.8120   -0.5700 hn        1 MOL      0.056650
    118 H51        -0.7580    0.4360   -3.5020 h1        1 MOL      0.078101
    119 H52        -0.6950   -2.0410   -2.8950 hc        1 MOL      0.120725
    120 H53        -1.9000   -1.2010   -1.9040 hc        1 MOL      0.120725
    121 H54        -1.3310   -0.6380    0.4200 hn        1 MOL      0.313558
    122 H55        -0.0730   -1.6110    1.1460 hn        1 MOL      0.313558
    123 N12         1.5900    1.4500   -3.1240 n         1 MOL     -0.482273
    124 C39         3.0530    1.8430   -3.2560 c3        1 MOL      0.136101
    125 C40         3.4970    2.3910   -1.8980 c         1 MOL      0.583626
    126 O19         2.6830    2.6420   -1.0180 o         1 MOL     -0.569335
    127 C41         3.2020    2.9100   -4.3000 c3        1 MOL      0.074249
    128 C42         2.4840    4.2580   -3.9220 ca        1 MOL     -0.254158
    129 C43         3.2910    5.2790   -3.3620 ca        1 MOL      0.173025
    130 C44         1.1620    4.4310   -4.1280 ca        1 MOL      0.173025
    131 C45         2.6850    6.5150   -3.0800 ca        1 MOL     -0.524011
    132 C46         0.5170    5.6680   -3.9520 ca        1 MOL     -0.524011
    133 C47         1.3610    6.6680   -3.3480 ca        1 MOL      0.552005
    134 O20         0.8140    7.8190   -2.9320 oh        1 MOL     -0.560555
    135 H56         0.9120    2.1740   -2.9820 hn        1 MOL      0.252399
    136 H57         3.6910    0.9920   -3.4620 h1        1 MOL      0.036776
    137 H58         2.9440    2.5680   -5.3010 hc        1 MOL     -0.006528
    138 H59         4.2390    3.1980   -4.4610 hc        1 MOL     -0.006528
    139 H60         4.3400    5.1410   -3.1670 ha        1 MOL      0.048678
    140 H61         0.6640    3.6020   -4.6000 ha        1 MOL      0.048678
    141 H62         3.2560    7.3520   -2.6800 ha        1 MOL      0.217037
    142 H63        -0.5530    5.7680   -4.0680 ha        1 MOL      0.217037
    143 H64        -0.0970    8.0840   -3.0790 ho        1 MOL      0.388114
    144 N13         4.8270    2.5400   -1.6460 n         1 MOL     -0.562260
    145 C48         5.3810    3.0030   -0.2880 c3        1 MOL      0.197061
    146 C49         6.4680    1.9470    0.1710 c         1 MOL      0.405049
    147 O21         7.6120    2.2600   -0.0080 o         1 MOL     -0.453022
    148 C50         5.8640    4.4450   -0.5070 c3        1 MOL     -0.463377
    149 C51         6.3390    5.1030    0.8560 c3        1 MOL     -0.322507
    150 C52         6.9780    6.5350    0.7730 c         1 MOL      0.766809
    151 O22         8.1970    6.6750    1.1870 o         1 MOL     -0.749029
    152 O23         6.3120    7.5180    0.4650 o         1 MOL     -0.749029
    153 H65         5.4550    1.9930   -2.2130 hn        1 MOL      0.252787
    154 H66         4.6300    2.8510    0.4850 h1        1 MOL      0.015212
    155 H67         4.9750    4.9990   -0.7950 hc        1 MOL      0.217045
    156 H68         6.6420    4.4860   -1.2660 hc        1 MOL      0.217045
    157 H69         7.0490    4.3750    1.2380 hc        1 MOL      0.080316
    158 H70         5.4610    5.1250    1.5070 hc        1 MOL      0.080316
    159 N14         6.1010    0.8200    0.8080 n         1 MOL     -0.294740
    160 C53         6.9580   -0.3490    0.9490 c3        1 MOL     -0.174918
    161 C54         7.1700   -1.1210   -0.3120 c         1 MOL      0.423354
    162 O24         8.2530   -1.5990   -0.4970 o         1 MOL     -0.528046
    163 C55         6.1750   -1.2680    1.9470 c3        1 MOL      0.126012
    164 C56         5.5580   -0.6700    3.2930 c3        1 MOL      0.029215
    165 C57         5.0280   -1.6890    4.2140 c         1 MOL      0.635781
    166 O25         5.8160   -2.3380    4.9850 o         1 MOL     -0.713304
    167 O26         3.7980   -1.9290    4.2090 o         1 MOL     -0.713304
    168 H71         5.1310    0.5570    0.8990 hn        1 MOL      0.220628
    169 H72         7.9130   -0.0070    1.3460 h1        1 MOL      0.145790
    170 H73         6.9320   -1.9800    2.2690 hc        1 MOL      0.021575
    171 H74         5.3800   -1.7650    1.3910 hc        1 MOL      0.021575
    172 H75         4.8380    0.0910    2.9860 hc        1 MOL     -0.070662
    173 H76         6.3520   -0.1660    3.8420 hc        1 MOL     -0.070662
    174 N15         6.3320   -0.9950   -1.3360 n         1 MOL     -0.027262
    175 C58         6.5080   -1.5520   -2.6360 c3        1 MOL     -0.244006
    176 H77         5.5400   -1.8590   -3.0320 h1        1 MOL      0.088505
    177 H78         6.9500   -0.8050   -3.2950 h1        1 MOL      0.088505
    178 H79         7.1660   -2.4180   -2.5750 h1        1 MOL      0.088505
    179 H80         5.3780   -0.6980   -1.1630 hn        1 MOL      0.154021
    180 Ca1         1.3900   -1.2200    4.4270 Ca        1 MOL      1.747936
    181 O27        -0.9440   -0.4500    5.8330 oh        1 MOL     -0.848396
    182 H81        -1.2700    0.4490    5.8300 ho        1 MOL      0.429339
    183 H82        -1.7350   -0.9880    5.8680 ho        1 MOL      0.429339
    184 O28         1.5800   -1.1880    7.1720 oh        1 MOL     -0.848396
    185 H83         2.1660   -1.0390    7.9090 ho        1 MOL      0.429339
    186 H84         0.7520   -1.4520    7.5790 ho        1 MOL      0.429339
    187 O29         2.7200    1.0700    5.0720 oh        1 MOL     -0.848396
    188 H85         2.9840    1.6160    4.3310 ho        1 MOL      0.429339
    189 H86         3.1050    1.5050    5.8360 ho        1 MOL      0.429339
    190 O30         2.4360   -0.4650    2.0230 oh        1 MOL     -0.848396
    191 H87         2.8200   -1.0110    1.3370 ho        1 MOL      0.429339
    192 H88         2.1440    0.3230    1.5700 ho        1 MOL      0.429339
    193 O31        -0.1460    0.6100    3.3690 oh        1 MOL     -0.848396
    194 H89        -1.0220    0.9860    3.3820 ho        1 MOL      0.429339
    195 H90         0.3380    1.1390    2.7350 ho        1 MOL      0.429339
@<TRIPOS>BOND
     1    1    2 1   
     2    1    4 1   
     3    1    5 1   
     4    1    6 1   
     5    2    3 2   
     6    2    7 1   
     7    7    8 1   
     8    7   15 1   
     9    8    9 1   
    10    8   11 1   
    11    8   16 1   
    12    9   10 2   
    13    9   19 1   
    14   11   12 1   
    15   11   17 1   
    16   11   18 1   
    17   12   13 1   
    18   12   14 1   
    19   19   20 1   
    20   19   27 1   
    21   20   21 1   
    22   20   23 1   
    23   20   28 1   
    24   21   22 2   
    25   21   38 1   
    26   23   24 1   
    27   23   25 1   
    28   23   29 1   
    29   24   26 1   
    30   24   30 1   
    31   24   31 1   
    32   25   32 1   
    33   25   33 1   
    34   25   34 1   
    35   26   35 1   
    36   26   36 1   
    37   26   37 1   
    38   38   39 1   
    39   38   46 1   
    40   39   40 1   
    41   39   42 1   
    42   39   47 1   
    43   40   41 2   
    44   40   50 1   
    45   42   43 1   
    46   42   48 1   
    47   42   49 1   
    48   43   44 1   
    49   43   45 1   
    50   50   51 1   
    51   50   54 1   
    52   51   52 1   
    53   51   55 1   
    54   51   56 1   
    55   52   53 2   
    56   52   57 1   
    57   57   58 1   
    58   57   65 1   
    59   58   59 1   
    60   58   61 1   
    61   58   66 1   
    62   59   60 2   
    63   59   69 1   
    64   61   62 1   
    65   61   67 1   
    66   61   68 1   
    67   62   63 1   
    68   62   64 1   
    69   69   70 1   
    70   69   73 1   
    71   70   71 1   
    72   70   74 1   
    73   70   75 1   
    74   71   72 2   
    75   71   76 1   
    76   76   77 1   
    77   76   85 1   
    78   77   78 1   
    79   77   80 1   
    80   77   86 1   
    81   78   79 2   
    82   78   93 1   
    83   80   81 1   
    84   80   87 1   
    85   80   88 1   
    86   81   82 1   
    87   81   89 1   
    88   81   90 1   
    89   82   83 1   
    90   82   84 2   
    91   83   91 1   
    92   83   92 1   
    93   93   94 1   
    94   93  100 1   
    95   94   95 1   
    96   94   97 1   
    97   94  101 1   
    98   95   96 2   
    99   95  109 1   
   100   97   98 1   
   101   97   99 1   
   102   97  102 1   
   103   98  103 1   
   104   98  104 1   
   105   98  105 1   
   106   99  106 1   
   107   99  107 1   
   108   99  108 1   
   109  109  110 1   
   110  109  117 1   
   111  110  111 1   
   112  110  113 1   
   113  110  118 1   
   114  111  112 2   
   115  111  123 1   
   116  113  114 1   
   117  113  119 1   
   118  113  120 1   
   119  114  115 1   
   120  114  116 2   
   121  115  121 1   
   122  115  122 1   
   123  123  124 1   
   124  123  135 1   
   125  124  125 1   
   126  124  127 1   
   127  124  136 1   
   128  125  126 2   
   129  125  144 1   
   130  127  128 1   
   131  127  137 1   
   132  127  138 1   
   133  128  129 ar  
   134  128  130 ar  
   135  129  131 ar  
   136  129  139 1   
   137  130  132 ar  
   138  130  140 1   
   139  131  133 ar  
   140  131  141 1   
   141  132  133 ar  
   142  132  142 1   
   143  133  134 1   
   144  134  143 1   
   145  144  145 1   
   146  144  153 1   
   147  145  146 1   
   148  145  148 1   
   149  145  154 1   
   150  146  147 2   
   151  146  159 1   
   152  148  149 1   
   153  148  155 1   
   154  148  156 1   
   155  149  150 1   
   156  149  157 1   
   157  149  158 1   
   158  150  151 1   
   159  150  152 1   
   160  159  160 1   
   161  159  168 1   
   162  160  161 1   
   163  160  163 1   
   164  160  169 1   
   165  161  162 2   
   166  161  174 1   
   167  163  164 1   
   168  163  170 1   
   169  163  171 1   
   170  164  165 1   
   171  164  172 1   
   172  164  173 1   
   173  165  166 1   
   174  165  167 1   
   175  174  175 1   
   176  174  179 1   
   177  175  176 1   
   178  175  177 1   
   179  175  178 1   
   180  181  182 1   
   181  181  183 1   
   182  184  185 1   
   183  184  186 1   
   184  187  188 1   
   185  187  189 1   
   186  190  191 1   
   187  190  192 1   
   188  193  194 1   
   189  193  195 1   
@<TRIPOS>SUBSTRUCTURE
     1 MOL         1 TEMP              0 ****  ****    0 ROOT
