@<TRIPOS>MOLECULE
MOL
  178   175     1     0     0
SMALL
resp


@<TRIPOS>ATOM
      1 C1          2.0490   -0.4240    4.8140 c3        1 MOL     -0.307876
      2 C2          3.2370   -0.2140    3.9090 c         1 MOL      0.586902
      3 O1          3.1350    0.5100    2.8960 o         1 MOL     -0.537610
      4 H1          1.6140   -1.4040    4.6200 hc        1 MOL      0.077246
      5 H2          2.3700   -0.3700    5.8540 hc        1 MOL      0.077246
      6 H3          1.3050    0.3480    4.6230 hc        1 MOL      0.077246
      7 N1          4.4040   -0.7990    4.1790 n         1 MOL     -0.417610
      8 C3          5.6620   -0.4350    3.6910 c3        1 MOL      0.089359
      9 C4          6.0980   -1.0450    2.3650 c         1 MOL      0.478347
     10 O2          6.7600   -0.4100    1.5300 o         1 MOL     -0.538436
     11 C5          6.8070   -0.6840    4.6900 c3        1 MOL     -0.213119
     12 C6          8.1740    0.0070    4.3050 c         1 MOL      0.741087
     13 O3          8.3910    1.2050    4.5900 o         1 MOL     -0.723681
     14 O4          9.1210   -0.7440    3.9660 o         1 MOL     -0.723681
     15 H4          4.3590   -1.4550    4.9500 hn        1 MOL      0.242179
     16 H5          5.7140    0.6480    3.5920 h1        1 MOL      0.071150
     17 H6          6.9650   -1.7540    4.7700 hc        1 MOL      0.012460
     18 H7          6.5800   -0.2190    5.6450 hc        1 MOL      0.012460
     19 N2          5.5650   -2.2610    2.1030 n         1 MOL     -0.385216
     20 C7          5.5700   -3.0940    0.9590 c3        1 MOL      0.126279
     21 C8          5.0890   -2.4430   -0.3460 c         1 MOL      0.490202
     22 O5          3.9110   -2.5740   -0.7370 o         1 MOL     -0.593821
     23 C9          6.9310   -3.8700    0.9530 c3        1 MOL     -0.360977
     24 H8          5.0930   -2.6250    2.9190 hn        1 MOL      0.250562
     25 H9          4.7390   -3.7620    1.1970 h1        1 MOL      0.083690
     26 H10         7.8150   -3.2620    0.7530 hc        1 MOL      0.105345
     27 H11         7.1030   -4.4330    1.8700 hc        1 MOL      0.105345
     28 H12         6.9730   -4.5600    0.1110 hc        1 MOL      0.105345
     29 N3          6.0050   -1.7670   -1.0050 n         1 MOL     -0.140909
     30 C10         5.7640   -1.0250   -2.2630 c3        1 MOL     -0.036307
     31 C11         6.0350    0.4530   -2.1400 c         1 MOL      0.511331
     32 O6          6.4410    1.1380   -3.0990 o         1 MOL     -0.549040
     33 C12         6.6220   -1.6720   -3.4310 c3        1 MOL     -0.177039
     34 C13         6.6940   -3.2060   -3.3890 c         1 MOL      0.605956
     35 O7          7.7900   -3.6680   -2.9880 o         1 MOL     -0.669927
     36 O8          5.6850   -3.9130   -3.6030 o         1 MOL     -0.669927
     37 H13         6.8790   -1.6130   -0.5210 hn        1 MOL      0.226240
     38 H14         4.7000   -1.1630   -2.5060 h1        1 MOL      0.014589
     39 H15         7.6490   -1.3420   -3.3200 hc        1 MOL      0.028877
     40 H16         6.3300   -1.2540   -4.3940 hc        1 MOL      0.028877
     41 N4          5.8690    0.9770   -0.9210 n         1 MOL     -0.209696
     42 C14         5.9910    2.3760   -0.6300 c3        1 MOL     -0.033492
     43 C15         4.8490    3.2510   -1.1690 c         1 MOL      0.598135
     44 O9          5.2170    4.2870   -1.7230 o         1 MOL     -0.543965
     45 H17         5.7290    0.2820   -0.1990 hn        1 MOL      0.193481
     46 H18         6.9200    2.7560   -1.0510 h1        1 MOL      0.049812
     47 H19         5.9120    2.4650    0.4480 h1        1 MOL      0.049812
     48 N5          3.5690    2.7350   -1.1610 n         1 MOL     -0.373952
     49 C16         2.4520    3.2900   -1.9260 c3        1 MOL     -0.008658
     50 C17         1.7080    4.5070   -1.3720 c         1 MOL      0.543570
     51 O10         1.9270    4.7880   -0.2060 o         1 MOL     -0.466406
     52 C18         1.4110    2.1090   -2.2010 c3        1 MOL     -0.501110
     53 C19         1.9110    0.9340   -3.0770 c         1 MOL      0.682799
     54 N6          2.1860    1.1990   -4.3410 n         1 MOL     -0.683375
     55 O11         2.1130   -0.2500   -2.6600 o         1 MOL     -0.559156
     56 H20         3.3250    1.8260   -0.8090 hn        1 MOL      0.256067
     57 H21         2.7710    3.5660   -2.9330 h1        1 MOL      0.033308
     58 H22         0.5160    2.5430   -2.6710 hc        1 MOL      0.186613
     59 H23         1.0590    1.6700   -1.2710 hc        1 MOL      0.186613
     60 H24         2.0850    2.1280   -4.7350 hn        1 MOL      0.331675
     61 H25         2.6570    0.5390   -4.9350 hn        1 MOL      0.331675
     62 N7          1.0240    5.1810   -2.3400 n         1 MOL     -0.353418
     63 C20         0.4700    6.5230   -2.2710 c3        1 MOL     -0.222092
     64 C21        -1.0440    6.5430   -1.8400 c         1 MOL      0.601964
     65 O12        -1.7150    5.6640   -2.3420 o         1 MOL     -0.509206
     66 H26         1.1680    4.8790   -3.2940 hn        1 MOL      0.290467
     67 H27         0.5790    7.0490   -3.2140 h1        1 MOL      0.110867
     68 H28         1.0110    7.1450   -1.5670 h1        1 MOL      0.110867
     69 N8         -1.5550    7.4130   -0.9350 n         1 MOL     -0.543357
     70 C22        -2.9950    7.5730   -0.5710 c3        1 MOL     -0.260110
     71 C23        -3.6330    6.3760    0.2100 c         1 MOL      0.391851
     72 O13        -4.8050    6.4250    0.7040 o         1 MOL     -0.534051
     73 C24        -3.3020    8.8930    0.0570 c3        1 MOL      0.578224
     74 C25        -2.9340    9.0760    1.5650 c3        1 MOL     -0.328126
     75 O14        -2.6670    9.8830   -0.6950 oh        1 MOL     -0.674665
     76 H29        -0.8470    8.0300   -0.5590 hn        1 MOL      0.300940
     77 H30        -3.5580    7.6890   -1.4940 h1        1 MOL      0.168776
     78 H31        -4.3540    9.1010   -0.0920 h1        1 MOL      0.007310
     79 H32        -1.7340    9.7040   -0.8270 ho        1 MOL      0.382632
     80 H33        -3.7590    8.6550    2.1350 hc        1 MOL      0.075550
     81 H34        -2.0550    8.4650    1.7280 hc        1 MOL      0.075550
     82 H35        -2.7820   10.0940    1.9360 hc        1 MOL      0.075550
     83 N9         -2.7740    5.3670    0.4430 n         1 MOL     -0.097917
     84 C26        -3.0290    4.1130    1.1320 c3        1 MOL     -0.102001
     85 C27        -2.5090    2.9310    0.2820 c         1 MOL      0.524094
     86 O15        -2.0250    3.1560   -0.8060 o         1 MOL     -0.493246
     87 C28        -2.3880    4.1740    2.5850 c3        1 MOL      0.028805
     88 C29        -0.9210    4.6110    2.6450 c3        1 MOL     -0.198576
     89 C30        -3.1670    5.2450    3.4130 c3        1 MOL     -0.170396
     90 C31        -0.0070    3.5860    2.0530 c3        1 MOL      0.082134
     91 H36        -1.9180    5.3810   -0.0880 hn        1 MOL      0.271629
     92 H37        -4.0860    3.8470    1.2350 h1        1 MOL      0.083772
     93 H38        -2.5840    3.2160    3.0690 hc        1 MOL      0.038928
     94 H39        -0.6640    4.8010    3.6860 hc        1 MOL      0.041477
     95 H40        -0.8190    5.5790    2.1520 hc        1 MOL      0.041477
     96 H41        -4.2420    5.0850    3.5620 hc        1 MOL      0.047545
     97 H42        -2.8440    5.2020    4.4560 hc        1 MOL      0.047545
     98 H43        -2.9940    6.1870    2.9030 hc        1 MOL      0.047545
     99 H44         1.0510    3.8050    2.2060 hc        1 MOL      0.016973
    100 H45        -0.1010    2.5930    2.4920 hc        1 MOL      0.016973
    101 H46         0.0440    3.5940    0.9620 hc        1 MOL      0.016973
    102 N10        -2.5250    1.6700    0.8120 n         1 MOL     -0.521239
    103 C32        -2.0880    0.4420    0.1440 c3        1 MOL      0.138434
    104 C33        -3.2650   -0.5800   -0.1780 c         1 MOL      0.436899
    105 O16        -3.0880   -1.8120   -0.2280 o         1 MOL     -0.416102
    106 C34        -0.8260   -0.1220    0.7620 c3        1 MOL      0.080201
    107 C35        -0.0320   -1.0290   -0.1590 c         1 MOL      0.435995
    108 O17         1.0100   -1.6750    0.1800 o         1 MOL     -0.679252
    109 O18        -0.3350   -1.1440   -1.3740 o         1 MOL     -0.679252
    110 H47        -2.9070    1.4770    1.7310 hn        1 MOL      0.263269
    111 H48        -1.7310    0.7910   -0.8190 h1        1 MOL      0.033212
    112 H49        -1.1470   -0.5020    1.7370 hc        1 MOL      0.019624
    113 H50        -0.1700    0.6850    1.0810 hc        1 MOL      0.019624
    114 N11        -4.5530   -0.1290   -0.2870 n         1 MOL     -0.400155
    115 C36        -5.7120   -0.9540   -0.5910 c3        1 MOL      0.160614
    116 C37        -5.8600   -2.1830    0.3200 c         1 MOL      0.141596
    117 O19        -6.0420   -1.9720    1.5280 o         1 MOL     -0.447394
    118 C38        -7.0190   -0.1550   -0.7410 c3        1 MOL     -0.084224
    119 C39        -8.2250   -0.9540   -1.1560 ca        1 MOL     -0.051086
    120 C40        -8.4840   -1.1430   -2.5370 ca        1 MOL     -0.065682
    121 C41        -8.9600   -1.7100   -0.2230 ca        1 MOL     -0.065682
    122 C42        -9.4270   -2.0770   -3.0260 ca        1 MOL     -0.168374
    123 C43        -9.8860   -2.6270   -0.7060 ca        1 MOL     -0.168374
    124 C44       -10.1340   -2.8360   -2.0690 ca        1 MOL     -0.078197
    125 H51        -4.6560    0.8830   -0.2270 hn        1 MOL      0.247207
    126 H52        -5.5020   -1.2920   -1.6010 h1        1 MOL      0.017597
    127 H53        -6.8650    0.5750   -1.5380 hc        1 MOL      0.064300
    128 H54        -7.1860    0.4780    0.1300 hc        1 MOL      0.064300
    129 H55        -7.9450   -0.5520   -3.2620 ha        1 MOL      0.105688
    130 H56        -8.7410   -1.5650    0.8170 ha        1 MOL      0.105688
    131 H57        -9.4920   -2.2940   -4.0830 ha        1 MOL      0.124569
    132 H58       -10.3660   -3.1530    0.0990 ha        1 MOL      0.124569
    133 H59       -10.8120   -3.5780   -2.4740 ha        1 MOL      0.100515
    134 N12        -5.9050   -3.4300   -0.1510 n         1 MOL      0.089143
    135 C45        -6.1360   -4.6090    0.7190 c3        1 MOL      0.093811
    136 C46        -4.8820   -4.8530    1.6310 c         1 MOL      0.147791
    137 O20        -5.1200   -5.6570    2.5590 o         1 MOL     -0.513894
    138 C47        -6.4080   -5.7990   -0.1700 c3        1 MOL     -0.132476
    139 C48        -6.7540   -5.1410   -1.4970 c3        1 MOL     -0.132537
    140 C49        -5.9750   -3.8750   -1.5080 c3        1 MOL      0.229786
    141 H60        -6.9670   -4.3040    1.3520 h1        1 MOL      0.070564
    142 H61        -5.4560   -6.3100   -0.3320 hc        1 MOL      0.071446
    143 H62        -7.2150   -6.4740    0.1140 hc        1 MOL      0.071446
    144 H63        -6.3720   -5.6760   -2.3660 hc        1 MOL      0.032537
    145 H64        -7.8280   -4.9240   -1.4860 hc        1 MOL      0.032537
    146 H65        -4.9870   -4.0060   -1.9390 h1        1 MOL     -0.039269
    147 H66        -6.5390   -3.2010   -2.1450 h1        1 MOL     -0.039269
    148 N13        -3.7540   -4.1550    1.4970 n         1 MOL      0.140602
    149 C50        -2.6420   -4.1120    2.5500 c3        1 MOL     -0.289357
    150 C51        -2.8640   -3.0870    3.6770 c         1 MOL      0.479537
    151 O21        -2.1380   -3.1540    4.6760 o         1 MOL     -0.539678
    152 C52        -1.2700   -3.8850    1.8070 c3        1 MOL     -0.008770
    153 C53        -0.7070   -5.0790    1.0290 c3        1 MOL      0.080750
    154 C54         0.1790   -4.6310   -0.1300 c         1 MOL      0.592777
    155 O22         1.4210   -4.7670   -0.0360 o         1 MOL     -0.731052
    156 O23        -0.3840   -4.0880   -1.0680 o         1 MOL     -0.731052
    157 H67        -3.6740   -3.5660    0.6750 hn        1 MOL      0.050866
    158 H68        -2.6610   -5.1180    2.9610 h1        1 MOL      0.135952
    159 H69        -0.4790   -3.7100    2.5370 hc        1 MOL      0.076812
    160 H70        -1.4090   -3.0080    1.1650 hc        1 MOL      0.076812
    161 H71        -1.5690   -5.5720    0.5670 hc        1 MOL     -0.045866
    162 H72        -0.1980   -5.8140    1.6570 hc        1 MOL     -0.045866
    163 N14        -3.8690   -2.2140    3.5380 n         1 MOL     -0.115324
    164 C55        -4.1570   -1.1870    4.6190 c3        1 MOL     -0.248396
    165 H73        -4.5400   -1.6910    5.5060 h1        1 MOL      0.099825
    166 H74        -3.2390   -0.6560    4.8710 h1        1 MOL      0.099825
    167 H75        -4.9010   -0.4760    4.2570 h1        1 MOL      0.099825
    168 H76        -4.4350   -2.1500    2.7070 hn        1 MOL      0.118004
    169 Ca1         1.5720   -2.8260   -2.1190 Ca        1 MOL      1.830782
    170 O24         2.2890   -5.2160   -3.1780 oh        1 MOL     -0.893527
    171 H77         1.6480   -5.9160   -3.1190 ho        1 MOL      0.426153
    172 H78         3.1280   -5.6640   -3.3010 ho        1 MOL      0.426153
    173 O25         3.5190   -2.5300   -3.9940 oh        1 MOL     -0.893527
    174 H79         4.2460   -3.1340   -3.9080 ho        1 MOL      0.426153
    175 H80         3.7410   -1.9920   -4.7580 ho        1 MOL      0.426153
    176 O26        -0.0370   -2.5630   -4.1590 oh        1 MOL     -0.893527
    177 H81        -0.8790   -2.8010   -3.7890 ho        1 MOL      0.426153
    178 H82        -0.1970   -2.4530   -5.0960 ho        1 MOL      0.426153
@<TRIPOS>BOND
     1    1    2 1   
     2    1    4 1   
     3    1    5 1   
     4    1    6 1   
     5    2    3 2   
     6    2    7 1   
     7    7    8 1   
     8    7   15 1   
     9    8    9 1   
    10    8   11 1   
    11    8   16 1   
    12    9   10 2   
    13    9   19 1   
    14   11   12 1   
    15   11   17 1   
    16   11   18 1   
    17   12   13 1   
    18   12   14 1   
    19   19   20 1   
    20   19   24 1   
    21   20   21 1   
    22   20   23 1   
    23   20   25 1   
    24   21   22 2   
    25   21   29 1   
    26   23   26 1   
    27   23   27 1   
    28   23   28 1   
    29   29   30 1   
    30   29   37 1   
    31   30   31 1   
    32   30   33 1   
    33   30   38 1   
    34   31   32 2   
    35   31   41 1   
    36   33   34 1   
    37   33   39 1   
    38   33   40 1   
    39   34   35 1   
    40   34   36 1   
    41   41   42 1   
    42   41   45 1   
    43   42   43 1   
    44   42   46 1   
    45   42   47 1   
    46   43   44 2   
    47   43   48 1   
    48   48   49 1   
    49   48   56 1   
    50   49   50 1   
    51   49   52 1   
    52   49   57 1   
    53   50   51 2   
    54   50   62 1   
    55   52   53 1   
    56   52   58 1   
    57   52   59 1   
    58   53   54 1   
    59   53   55 2   
    60   54   60 1   
    61   54   61 1   
    62   62   63 1   
    63   62   66 1   
    64   63   64 1   
    65   63   67 1   
    66   63   68 1   
    67   64   65 2   
    68   64   69 1   
    69   69   70 1   
    70   69   76 1   
    71   70   71 1   
    72   70   73 1   
    73   70   77 1   
    74   71   72 2   
    75   71   83 1   
    76   73   74 1   
    77   73   75 1   
    78   73   78 1   
    79   74   80 1   
    80   74   81 1   
    81   74   82 1   
    82   75   79 1   
    83   83   84 1   
    84   83   91 1   
    85   84   85 1   
    86   84   87 1   
    87   84   92 1   
    88   85   86 2   
    89   85  102 1   
    90   87   88 1   
    91   87   89 1   
    92   87   93 1   
    93   88   90 1   
    94   88   94 1   
    95   88   95 1   
    96   89   96 1   
    97   89   97 1   
    98   89   98 1   
    99   90   99 1   
   100   90  100 1   
   101   90  101 1   
   102  102  103 1   
   103  102  110 1   
   104  103  104 1   
   105  103  106 1   
   106  103  111 1   
   107  104  105 2   
   108  104  114 1   
   109  106  107 1   
   110  106  112 1   
   111  106  113 1   
   112  107  108 1   
   113  107  109 1   
   114  114  115 1   
   115  114  125 1   
   116  115  116 1   
   117  115  118 1   
   118  115  126 1   
   119  116  117 2   
   120  116  134 1   
   121  118  119 1   
   122  118  127 1   
   123  118  128 1   
   124  119  120 ar  
   125  119  121 ar  
   126  120  122 ar  
   127  120  129 1   
   128  121  123 ar  
   129  121  130 1   
   130  122  124 ar  
   131  122  131 1   
   132  123  124 ar  
   133  123  132 1   
   134  124  133 1   
   135  134  135 1   
   136  134  140 1   
   137  135  136 1   
   138  135  138 1   
   139  135  141 1   
   140  136  137 2   
   141  136  148 1   
   142  138  139 1   
   143  138  142 1   
   144  138  143 1   
   145  139  140 1   
   146  139  144 1   
   147  139  145 1   
   148  140  146 1   
   149  140  147 1   
   150  148  149 1   
   151  148  157 1   
   152  149  150 1   
   153  149  152 1   
   154  149  158 1   
   155  150  151 2   
   156  150  163 1   
   157  152  153 1   
   158  152  159 1   
   159  152  160 1   
   160  153  154 1   
   161  153  161 1   
   162  153  162 1   
   163  154  155 1   
   164  154  156 1   
   165  163  164 1   
   166  163  168 1   
   167  164  165 1   
   168  164  166 1   
   169  164  167 1   
   170  170  171 1   
   171  170  172 1   
   172  173  174 1   
   173  173  175 1   
   174  176  177 1   
   175  176  178 1   
@<TRIPOS>SUBSTRUCTURE
     1 MOL         1 TEMP              0 ****  ****    0 ROOT
