@<TRIPOS>MOLECULE
MOL
  195   189     1     0     0
SMALL
resp


@<TRIPOS>ATOM
      1 C1         -6.1630   -3.5350    4.6620 c3        1 MOL     -0.297143
      2 C2         -5.4780   -2.7120    3.4630 c         1 MOL      0.650529
      3 O1         -5.1450   -3.3130    2.4540 o         1 MOL     -0.548768
      4 H1         -5.4520   -3.6420    5.4820 hc        1 MOL      0.071552
      5 H2         -7.0450   -3.0000    5.0140 hc        1 MOL      0.071552
      6 H3         -6.4550   -4.5230    4.3060 hc        1 MOL      0.071552
      7 N1         -5.2940   -1.4230    3.6540 n         1 MOL     -0.400235
      8 C3         -4.8400   -0.3580    2.6200 c3        1 MOL      0.164105
      9 C4         -3.3850   -0.3870    2.3070 c         1 MOL      0.241191
     10 O2         -2.9620    0.4170    1.4950 o         1 MOL     -0.106638
     11 C5         -5.4300    1.0360    2.9940 c3        1 MOL     -0.158027
     12 C6         -6.9670    1.1060    3.1730 c         1 MOL      0.629693
     13 O3         -7.4420    0.9160    4.2910 o         1 MOL     -0.677421
     14 O4         -7.7130    1.4720    2.1480 o         1 MOL     -0.677421
     15 H4         -5.5040   -1.1400    4.6000 hn        1 MOL      0.234183
     16 H5         -5.2850   -0.6590    1.6680 h1        1 MOL      0.056797
     17 H6         -5.0360    1.7170    2.2300 hc        1 MOL      0.013047
     18 H7         -4.9720    1.3370    3.9350 hc        1 MOL      0.013047
     19 N2         -2.6310   -1.3770    2.7280 n         1 MOL     -0.318647
     20 C7         -1.1450   -1.2290    2.6580 c3        1 MOL      0.039567
     21 C8         -0.4870   -2.5250    2.1430 c         1 MOL      0.392089
     22 O5         -0.8770   -3.6010    2.5180 o         1 MOL     -0.511797
     23 C9         -0.5310   -0.8350    3.9920 c3        1 MOL     -0.028218
     24 C10        -0.9100   -1.5690    5.2290 c3        1 MOL      0.151073
     25 C11        -0.1850   -1.1240    6.5210 c3        1 MOL     -0.089099
     26 C12        -0.7310   -1.7300    7.8110 c3        1 MOL      0.140769
     27 N3         -0.6000   -3.2000    8.0170 n4        1 MOL     -0.295457
     28 H8         -3.0760   -2.1660    3.1590 hn        1 MOL      0.207884
     29 H9         -0.8630   -0.3990    2.0000 h1        1 MOL      0.004331
     30 H10        -0.6390    0.2480    4.0480 hc        1 MOL      0.044050
     31 H11         0.5480   -0.9390    3.9500 hc        1 MOL      0.044050
     32 H12        -0.6460   -2.6240    5.0970 hc        1 MOL     -0.052679
     33 H13        -1.9930   -1.4650    5.2420 hc        1 MOL     -0.052679
     34 H14        -0.3150   -0.0440    6.4890 hc        1 MOL      0.056146
     35 H15         0.8540   -1.4090    6.3480 hc        1 MOL      0.056146
     36 H16        -1.7880   -1.4830    7.8860 hx        1 MOL      0.034099
     37 H17        -0.2590   -1.2070    8.6520 hx        1 MOL      0.034099
     38 H18        -1.0810   -3.7260    7.2970 hn        1 MOL      0.286217
     39 H19         0.3610   -3.5020    8.0730 hn        1 MOL      0.286217
     40 H20        -0.9720   -3.4870    8.9170 hn        1 MOL      0.286217
     41 N4          0.5090   -2.5220    1.2610 n         1 MOL     -0.241000
     42 C13         1.0630   -1.3810    0.4860 c3        1 MOL     -0.127127
     43 C14         1.7260   -0.1460    1.2450 c         1 MOL      0.472511
     44 O6          1.0230    0.8520    1.5030 o         1 MOL     -0.497808
     45 C15         0.1390   -0.9420   -0.6440 c3        1 MOL     -0.090160
     46 C16         0.0920   -2.0220   -1.7910 c         1 MOL      0.414763
     47 O7          1.1700   -2.6590   -2.0670 o         1 MOL     -0.668729
     48 O8         -0.9630   -2.1740   -2.5570 o         1 MOL     -0.668729
     49 H21         0.8310   -3.4170    0.9170 hn        1 MOL      0.228523
     50 H22         1.9230   -1.8400    0.0140 h1        1 MOL      0.042489
     51 H23         0.4660    0.0230   -1.0500 hc        1 MOL      0.136392
     52 H24        -0.8730   -0.7370   -0.3100 hc        1 MOL      0.136392
     53 N5          2.9770   -0.1470    1.6860 n         1 MOL     -0.489943
     54 C17         3.8770   -1.3570    1.6370 c3        1 MOL      0.041595
     55 C18         5.1060   -1.3220    2.5000 c         1 MOL      0.566258
     56 O9          5.1330   -0.6620    3.5320 o         1 MOL     -0.541452
     57 H25         3.3680    0.7270    1.9810 hn        1 MOL      0.330465
     58 H26         4.1140   -1.4040    0.5800 h1        1 MOL      0.075671
     59 H27         3.2580   -2.2170    1.9160 h1        1 MOL      0.075671
     60 N6          6.2120   -2.1320    2.3580 n         1 MOL     -0.610933
     61 C19         6.3500   -3.1400    1.2610 c3        1 MOL      0.286365
     62 C20         6.9100   -2.5200   -0.0400 c         1 MOL      0.634178
     63 O10         7.5140   -1.4920    0.0480 o         1 MOL     -0.504104
     64 C21         7.2770   -4.3070    1.6310 c3        1 MOL     -0.288109
     65 C22         8.4890   -4.0900    2.6010 c         1 MOL      0.686534
     66 O11         8.4500   -3.2080    3.4500 o         1 MOL     -0.645646
     67 O12         9.5900   -4.6970    2.4020 o         1 MOL     -0.645646
     68 H28         6.9620   -2.2410    3.0320 hn        1 MOL      0.366371
     69 H29         5.3840   -3.5340    0.9260 h1        1 MOL     -0.097065
     70 H30         7.6980   -4.6120    0.6740 hc        1 MOL      0.024543
     71 H31         6.6760   -5.1430    2.0080 hc        1 MOL      0.024543
     72 N7          6.5960   -3.0130   -1.2400 n         1 MOL     -0.278904
     73 C23         7.1240   -2.5840   -2.5720 c3        1 MOL     -0.433530
     74 C24         6.6000   -1.1260   -2.7190 c         1 MOL      0.597147
     75 O13         7.1880   -0.3380   -3.4360 o         1 MOL     -0.552868
     76 H32         6.0200   -3.8420   -1.2670 hn        1 MOL      0.194859
     77 H33         6.7810   -3.2790   -3.3410 h1        1 MOL      0.199395
     78 H34         8.1910   -2.3620   -2.5940 h1        1 MOL      0.199395
     79 N8          5.4100   -0.7260   -2.2540 n         1 MOL     -0.492336
     80 C25         4.8420    0.6080   -2.3520 c3        1 MOL      0.269718
     81 C26         5.2120    1.4660   -1.1700 c         1 MOL      0.636050
     82 O14         5.3990    0.9890   -0.0670 o         1 MOL     -0.495989
     83 C27         3.2760    0.5290   -2.4170 c3        1 MOL      0.034917
     84 C28         2.7890   -0.2470   -3.6010 c3        1 MOL     -0.436634
     85 O15         2.7990    1.8330   -2.6740 oh        1 MOL     -0.507529
     86 H35         4.8790   -1.4470   -1.7860 hn        1 MOL      0.178525
     87 H36         5.3140    1.0260   -3.2360 h1        1 MOL      0.050446
     88 H37         2.8480    0.0960   -1.5170 h1        1 MOL      0.162800
     89 H38         2.1140    1.9810   -2.0190 ho        1 MOL      0.327110
     90 H39         3.0920   -1.2900   -3.5660 hc        1 MOL      0.141163
     91 H40         1.7040   -0.1950   -3.6670 hc        1 MOL      0.141163
     92 H41         3.0870    0.1390   -4.5780 hc        1 MOL      0.141163
     93 N9          5.1770    2.8020   -1.2700 n         1 MOL     -0.772696
     94 C29         5.5510    3.8930   -0.2870 c3        1 MOL      0.242464
     95 C30         4.2940    4.6550    0.1440 c         1 MOL      0.424663
     96 O16         4.4060    5.4230    1.1330 o         1 MOL     -0.534806
     97 C31         6.6900    4.8140   -0.8710 c3        1 MOL      0.149582
     98 C32         7.5450    5.5700    0.1570 c3        1 MOL     -0.065856
     99 C33         6.1310    5.7790   -1.9830 c3        1 MOL     -0.402301
    100 C34         8.1970    4.8620    1.3830 c3        1 MOL     -0.176058
    101 H42         4.8220    3.1510   -2.1510 hn        1 MOL      0.305870
    102 H43         5.9630    3.3920    0.5840 h1        1 MOL      0.081919
    103 H44         7.3470    4.0860   -1.3540 hc        1 MOL      0.031696
    104 H45         6.8640    6.3050    0.6020 hc        1 MOL      0.029084
    105 H46         8.3350    6.1620   -0.3020 hc        1 MOL      0.029084
    106 H47         5.3450    6.4040   -1.5440 hc        1 MOL      0.098263
    107 H48         6.9570    6.4230   -2.3060 hc        1 MOL      0.098263
    108 H49         5.8870    5.1960   -2.8650 hc        1 MOL      0.098263
    109 H50         7.4490    4.2780    1.9070 hc        1 MOL      0.050990
    110 H51         9.0350    4.2520    1.0390 hc        1 MOL      0.050990
    111 H52         8.5960    5.5540    2.1350 hc        1 MOL      0.050990
    112 N10         3.1680    4.3760   -0.5010 n         1 MOL     -0.191652
    113 C35         1.8580    5.0900   -0.2950 c3        1 MOL     -0.274228
    114 C36         0.7340    4.0360   -0.2310 c         1 MOL      0.676188
    115 O17         0.7800    3.0170   -0.9570 o         1 MOL     -0.546772
    116 C37         1.6280    6.1640   -1.3630 c3        1 MOL      0.511514
    117 C38         1.9150    5.6650   -2.7420 c3        1 MOL     -0.242208
    118 O18         2.4020    7.2990   -1.1040 oh        1 MOL     -0.625224
    119 H53         3.2430    3.7980   -1.3240 hn        1 MOL      0.150033
    120 H54         1.9090    5.5700    0.6890 h1        1 MOL      0.099953
    121 H55         0.5600    6.3290   -1.2240 h1        1 MOL     -0.039707
    122 H56         3.1500    6.9790   -0.5940 ho        1 MOL      0.364875
    123 H57         2.9750    5.5540   -2.9830 hc        1 MOL      0.058100
    124 H58         1.4580    4.6970   -2.9480 hc        1 MOL      0.058100
    125 H59         1.4860    6.3480   -3.4870 hc        1 MOL      0.058100
    126 N11        -0.2990    4.2740    0.5960 n         1 MOL     -0.473872
    127 C39        -1.4140    3.3160    0.7870 c3        1 MOL     -0.074607
    128 C40        -2.4900    3.5430   -0.2910 c         1 MOL      0.547005
    129 O19        -2.6120    4.5810   -0.8760 o         1 MOL     -0.550449
    130 C41        -2.0100    3.4460    2.2180 c3        1 MOL      0.485401
    131 C42        -2.6770    4.7530    2.6430 c3        1 MOL     -0.401497
    132 O20        -1.0040    3.2860    3.1300 oh        1 MOL     -0.631103
    133 H60        -0.1510    5.1150    1.1170 hn        1 MOL      0.318660
    134 H61        -0.9590    2.3210    0.7650 h1        1 MOL      0.072212
    135 H62        -2.6990    2.6120    2.3530 h1        1 MOL     -0.076983
    136 H63        -1.3260    3.0610    4.0140 ho        1 MOL      0.393670
    137 H64        -2.0150    5.6030    2.5210 hc        1 MOL      0.096976
    138 H65        -3.5870    4.9000    2.0640 hc        1 MOL      0.096976
    139 H66        -2.9690    4.7100    3.6890 hc        1 MOL      0.096976
    140 N12        -3.2160    2.4780   -0.5170 n         1 MOL     -0.133564
    141 C43        -4.3010    2.4370   -1.5760 c3        1 MOL     -0.345451
    142 C44        -4.6770    0.9850   -1.9840 c         1 MOL      0.717004
    143 O21        -5.2740    0.9180   -3.0590 o         1 MOL     -0.634235
    144 C45        -5.5430    3.1160   -1.0940 c3        1 MOL      0.101700
    145 C46        -6.5560    3.6040   -2.1360 c3        1 MOL      0.139977
    146 C47        -7.6980    4.4060   -1.4880 c3        1 MOL     -0.137846
    147 C48        -8.8010    4.7970   -2.5480 c3        1 MOL      0.214596
    148 N13       -10.0240    5.2400   -1.9200 n4        1 MOL     -0.420396
    149 H67        -3.0550    1.6420    0.0270 hn        1 MOL     -0.074561
    150 H68        -3.7930    2.9270   -2.4050 h1        1 MOL      0.144363
    151 H69        -5.2980    3.9730   -0.4620 hc        1 MOL     -0.000775
    152 H70        -6.0740    2.4380   -0.4270 hc        1 MOL     -0.000775
    153 H71        -6.8800    2.6920   -2.6180 hc        1 MOL     -0.007210
    154 H72        -6.1710    4.2630   -2.9190 hc        1 MOL     -0.007210
    155 H73        -7.3040    5.3140   -1.0330 hc        1 MOL      0.053292
    156 H74        -8.1340    3.7040   -0.7790 hc        1 MOL      0.053292
    157 H75        -9.0100    4.0210   -3.2870 hx        1 MOL      0.023168
    158 H76        -8.4580    5.7390   -2.9950 hx        1 MOL      0.023168
    159 H77        -9.8840    6.1030   -1.4190 hn        1 MOL      0.337141
    160 H78       -10.7370    5.4250   -2.6100 hn        1 MOL      0.337141
    161 H79       -10.4620    4.5180   -1.3710 hn        1 MOL      0.337141
    162 N14        -4.5320   -0.0460   -1.1610 n         1 MOL     -0.283867
    163 C49        -4.7720   -1.4130   -1.6050 c3        1 MOL     -0.674434
    164 C50        -6.2620   -1.7630   -1.6490 c         1 MOL      0.703638
    165 O22        -6.9880   -1.3280   -0.7370 o         1 MOL     -0.537244
    166 C51        -3.8360   -2.3290   -0.7420 c3        1 MOL      1.194872
    167 C52        -3.6700   -3.8100   -1.2030 c3        1 MOL     -0.758450
    168 C53        -3.5100   -4.0770   -2.7480 c         1 MOL      0.837793
    169 O23        -4.2960   -3.6060   -3.6410 o         1 MOL     -0.719065
    170 O24        -2.6190   -4.9090   -3.1100 o         1 MOL     -0.719065
    171 H80        -4.1300    0.2190   -0.2840 hn        1 MOL      0.240307
    172 H81        -4.3710   -1.3790   -2.6210 h1        1 MOL      0.199347
    173 H82        -4.3180   -2.3540    0.2410 hc        1 MOL     -0.253281
    174 H83        -2.8670   -1.8320   -0.7030 hc        1 MOL     -0.253281
    175 H84        -4.4270   -4.4390   -0.7560 hc        1 MOL      0.136947
    176 H85        -2.6830   -4.1450   -0.8560 hc        1 MOL      0.136947
    177 N15        -6.6590   -2.5350   -2.6400 n         1 MOL     -0.406734
    178 C54        -7.9780   -3.1850   -2.7810 c3        1 MOL     -0.106405
    179 H86        -8.6630   -2.5100   -3.2950 h1        1 MOL      0.069647
    180 H87        -7.8710   -4.1030   -3.3600 h1        1 MOL      0.069647
    181 H88        -8.3750   -3.4220   -1.7940 h1        1 MOL      0.069647
    182 H89        -5.9910   -2.7340   -3.3730 hn        1 MOL      0.361321
    183 Ca1        -0.0580   -4.4600   -3.4660 Ca        1 MOL      1.759217
    184 O25        -1.3490   -7.1070   -2.7810 oh        1 MOL     -0.890795
    185 H90        -1.5280   -7.8370   -3.3730 ho        1 MOL      0.432504
    186 H91        -2.0600   -6.4850   -2.9630 ho        1 MOL      0.432504
    187 O26         1.6180   -3.1580   -5.1300 oh        1 MOL     -0.890795
    188 H92         1.2400   -2.7400   -5.9010 ho        1 MOL      0.432504
    189 H93         2.5640   -3.0690   -5.2360 ho        1 MOL      0.432504
    190 O27        -1.5240   -2.8160   -5.1150 oh        1 MOL     -0.890795
    191 H94        -1.2040   -1.9270   -5.2660 ho        1 MOL      0.432504
    192 H95        -2.4540   -2.7760   -5.3370 ho        1 MOL      0.432504
    193 O28        -0.7240   -6.1710   -5.4460 oh        1 MOL     -0.890795
    194 H96        -0.4020   -7.0700   -5.4990 ho        1 MOL      0.432504
    195 H97        -1.1330   -6.0100   -6.2960 ho        1 MOL      0.432504
@<TRIPOS>BOND
     1    1    2 1   
     2    1    4 1   
     3    1    5 1   
     4    1    6 1   
     5    2    3 2   
     6    2    7 1   
     7    7    8 1   
     8    7   15 1   
     9    8    9 1   
    10    8   11 1   
    11    8   16 1   
    12    9   10 2   
    13    9   19 1   
    14   11   12 1   
    15   11   17 1   
    16   11   18 1   
    17   12   13 1   
    18   12   14 1   
    19   19   20 1   
    20   19   28 1   
    21   20   21 1   
    22   20   23 1   
    23   20   29 1   
    24   21   22 2   
    25   21   41 1   
    26   23   24 1   
    27   23   30 1   
    28   23   31 1   
    29   24   25 1   
    30   24   32 1   
    31   24   33 1   
    32   25   26 1   
    33   25   34 1   
    34   25   35 1   
    35   26   27 1   
    36   26   36 1   
    37   26   37 1   
    38   27   38 1   
    39   27   39 1   
    40   27   40 1   
    41   41   42 1   
    42   41   49 1   
    43   42   43 1   
    44   42   45 1   
    45   42   50 1   
    46   43   44 2   
    47   43   53 1   
    48   45   46 1   
    49   45   51 1   
    50   45   52 1   
    51   46   47 1   
    52   46   48 1   
    53   53   54 1   
    54   53   57 1   
    55   54   55 1   
    56   54   58 1   
    57   54   59 1   
    58   55   56 2   
    59   55   60 1   
    60   60   61 1   
    61   60   68 1   
    62   61   62 1   
    63   61   64 1   
    64   61   69 1   
    65   62   63 2   
    66   62   72 1   
    67   64   65 1   
    68   64   70 1   
    69   64   71 1   
    70   65   66 1   
    71   65   67 1   
    72   72   73 1   
    73   72   76 1   
    74   73   74 1   
    75   73   77 1   
    76   73   78 1   
    77   74   75 2   
    78   74   79 1   
    79   79   80 1   
    80   79   86 1   
    81   80   81 1   
    82   80   83 1   
    83   80   87 1   
    84   81   82 2   
    85   81   93 1   
    86   83   84 1   
    87   83   85 1   
    88   83   88 1   
    89   84   90 1   
    90   84   91 1   
    91   84   92 1   
    92   85   89 1   
    93   93   94 1   
    94   93  101 1   
    95   94   95 1   
    96   94   97 1   
    97   94  102 1   
    98   95   96 2   
    99   95  112 1   
   100   97   98 1   
   101   97   99 1   
   102   97  103 1   
   103   98  100 1   
   104   98  104 1   
   105   98  105 1   
   106   99  106 1   
   107   99  107 1   
   108   99  108 1   
   109  100  109 1   
   110  100  110 1   
   111  100  111 1   
   112  112  113 1   
   113  112  119 1   
   114  113  114 1   
   115  113  116 1   
   116  113  120 1   
   117  114  115 2   
   118  114  126 1   
   119  116  117 1   
   120  116  118 1   
   121  116  121 1   
   122  117  123 1   
   123  117  124 1   
   124  117  125 1   
   125  118  122 1   
   126  126  127 1   
   127  126  133 1   
   128  127  128 1   
   129  127  130 1   
   130  127  134 1   
   131  128  129 2   
   132  128  140 1   
   133  130  131 1   
   134  130  132 1   
   135  130  135 1   
   136  131  137 1   
   137  131  138 1   
   138  131  139 1   
   139  132  136 1   
   140  140  141 1   
   141  140  149 1   
   142  141  142 1   
   143  141  144 1   
   144  141  150 1   
   145  142  143 2   
   146  142  162 1   
   147  144  145 1   
   148  144  151 1   
   149  144  152 1   
   150  145  146 1   
   151  145  153 1   
   152  145  154 1   
   153  146  147 1   
   154  146  155 1   
   155  146  156 1   
   156  147  148 1   
   157  147  157 1   
   158  147  158 1   
   159  148  159 1   
   160  148  160 1   
   161  148  161 1   
   162  162  163 1   
   163  162  171 1   
   164  163  164 1   
   165  163  166 1   
   166  163  172 1   
   167  164  165 2   
   168  164  177 1   
   169  166  167 1   
   170  166  173 1   
   171  166  174 1   
   172  167  168 1   
   173  167  175 1   
   174  167  176 1   
   175  168  169 1   
   176  168  170 1   
   177  177  178 1   
   178  177  182 1   
   179  178  179 1   
   180  178  180 1   
   181  178  181 1   
   182  184  185 1   
   183  184  186 1   
   184  187  188 1   
   185  187  189 1   
   186  190  191 1   
   187  190  192 1   
   188  193  194 1   
   189  193  195 1   
@<TRIPOS>SUBSTRUCTURE
     1 MOL         1 TEMP              0 ****  ****    0 ROOT
