@<TRIPOS>MOLECULE
MOL
  182   178     1     0     0
SMALL
resp


@<TRIPOS>ATOM
      1 C1         -0.9630   -4.9200    5.2230 c3        1 MOL     -0.413570
      2 C2         -0.6300   -4.4130    3.7520 c         1 MOL      0.703379
      3 O1         -1.3940   -4.4730    2.8140 o         1 MOL     -0.592683
      4 H1         -0.0700   -4.8430    5.8440 hc        1 MOL      0.111232
      5 H2         -1.7550   -4.3040    5.6490 hc        1 MOL      0.111232
      6 H3         -1.2910   -5.9590    5.1840 hc        1 MOL      0.111232
      7 N1          0.5310   -3.7670    3.6910 n         1 MOL     -0.516568
      8 C3          1.1180   -3.3300    2.4080 c3        1 MOL      0.002762
      9 C4          1.7140   -4.4880    1.6170 c         1 MOL      0.530145
     10 O2          2.5260   -5.2180    2.1380 o         1 MOL     -0.538502
     11 C5          2.1620   -2.1930    2.6970 c3        1 MOL     -0.112655
     12 C6          2.7220   -1.5750    1.4540 c         1 MOL      0.758491
     13 O3          3.3800   -0.4890    1.5540 o         1 MOL     -0.770085
     14 O4          2.4980   -1.9780    0.2970 o         1 MOL     -0.770085
     15 H4          1.0750   -3.8150    4.5380 hn        1 MOL      0.318116
     16 H5          0.3720   -2.8210    1.8030 h1        1 MOL      0.007460
     17 H6          2.9990   -2.5340    3.3030 hc        1 MOL      0.044398
     18 H7          1.7470   -1.3810    3.2890 hc        1 MOL      0.044398
     19 N2          1.2620   -4.6300    0.3940 n         1 MOL     -0.315122
     20 C7          1.6530   -5.7140   -0.5410 c3        1 MOL      0.031478
     21 C8          2.9300   -5.3790   -1.3410 c         1 MOL      0.428021
     22 O5          3.5810   -6.3270   -1.7100 o         1 MOL     -0.534441
     23 C9          0.5500   -6.0980   -1.5370 c3        1 MOL     -0.111138
     24 C10         0.2840   -5.0870   -2.6890 c3        1 MOL      0.139780
     25 C11        -1.0320   -5.5560   -3.3610 c3        1 MOL     -0.337296
     26 C12        -1.5480   -4.7240   -4.5420 c3        1 MOL      0.185089
     27 N3         -2.7410   -5.3610   -5.1770 n4        1 MOL     -0.359129
     28 H8          0.4840   -4.0250    0.1650 hn        1 MOL      0.263309
     29 H9          1.8640   -6.6400   -0.0050 h1        1 MOL      0.102661
     30 H10        -0.3490   -6.4400   -1.0250 hc        1 MOL      0.049770
     31 H11         0.9360   -6.9330   -2.1230 hc        1 MOL      0.049770
     32 H12         1.1600   -5.0950   -3.3230 hc        1 MOL      0.032520
     33 H13         0.1390   -4.0880   -2.2680 hc        1 MOL      0.032520
     34 H14        -1.7900   -5.5260   -2.5830 hc        1 MOL      0.105548
     35 H15        -0.8250   -6.5820   -3.6820 hc        1 MOL      0.105548
     36 H16        -0.7970   -4.6230   -5.3340 hx        1 MOL      0.051463
     37 H17        -1.6580   -3.6770   -4.2850 hx        1 MOL      0.051463
     38 H18        -2.6430   -6.3490   -5.3510 hn        1 MOL      0.318052
     39 H19        -3.6000   -5.1880   -4.6730 hn        1 MOL      0.318052
     40 H20        -2.9110   -4.9600   -6.0890 hn        1 MOL      0.318052
     41 N4          3.1880   -4.1190   -1.6950 n         1 MOL     -0.101362
     42 C13         4.4120   -3.7830   -2.4860 c3        1 MOL      0.038064
     43 C14         5.5520   -3.4690   -1.5180 c         1 MOL      0.491844
     44 O6          6.7160   -3.6840   -1.8510 o         1 MOL     -0.549328
     45 C15         4.1470   -2.5960   -3.3880 c3        1 MOL     -0.194352
     46 C16         3.4420   -1.3720   -2.7000 c         1 MOL      0.726630
     47 O7          2.2260   -1.1980   -2.7930 o         1 MOL     -0.760003
     48 O8          4.0880   -0.6580   -1.8380 o         1 MOL     -0.760003
     49 H21         2.5580   -3.3890   -1.3860 hn        1 MOL     -0.063070
     50 H22         4.7900   -4.6040   -3.0950 h1        1 MOL      0.083292
     51 H23         3.5680   -2.9500   -4.2390 hc        1 MOL      0.063380
     52 H24         5.0990   -2.1850   -3.7220 hc        1 MOL      0.063380
     53 N5          5.3270   -2.9210   -0.2910 n         1 MOL     -0.223829
     54 C17         6.2680   -2.6010    0.7230 c3        1 MOL     -0.200739
     55 C18         6.8410   -1.2350    0.6680 c         1 MOL      0.624850
     56 O9          7.7870   -1.0220    1.4010 o         1 MOL     -0.593673
     57 H25         4.4190   -2.5030   -0.0880 hn        1 MOL      0.232328
     58 H26         7.0870   -3.3190    0.7860 h1        1 MOL      0.116021
     59 H27         5.7230   -2.7380    1.6550 h1        1 MOL      0.116021
     60 N6          6.3730   -0.3760   -0.2220 n         1 MOL     -0.314266
     61 C19         6.8570    0.9660   -0.5190 c3        1 MOL      0.155968
     62 C20         5.6620    1.9550   -0.5910 c         1 MOL      0.337004
     63 O10         4.5120    1.6020   -0.4880 o         1 MOL     -0.374738
     64 C21         7.8190    0.9510   -1.7020 c3        1 MOL     -0.360382
     65 C22         7.1090    1.3460   -2.9720 c         1 MOL      0.674102
     66 N7          6.1480    0.6700   -3.4360 n         1 MOL     -0.659526
     67 O11         7.4460    2.3020   -3.5510 o         1 MOL     -0.628172
     68 H28         5.5370   -0.6170   -0.7370 hn        1 MOL      0.182967
     69 H29         7.4760    1.3110    0.3030 h1        1 MOL      0.051553
     70 H30         8.3240   -0.0010   -1.8590 hc        1 MOL      0.129348
     71 H31         8.6010    1.6930   -1.5150 hc        1 MOL      0.129348
     72 H32         5.6690    0.0130   -2.8370 hn        1 MOL      0.308368
     73 H33         5.8170    1.1790   -4.2470 hn        1 MOL      0.308368
     74 N8          5.9080    3.2000   -0.7420 n         1 MOL     -0.343533
     75 C23         5.0050    4.3000   -0.9780 c3        1 MOL      0.058247
     76 C24         3.9650    4.4860    0.1880 c         1 MOL      0.527116
     77 O12         4.3230    4.4900    1.3710 o         1 MOL     -0.507931
     78 H34         6.8880    3.4650   -0.8130 hn        1 MOL      0.282572
     79 H35         4.3760    4.1240   -1.8430 h1        1 MOL      0.024558
     80 H36         5.4880    5.2680   -1.0940 h1        1 MOL      0.024558
     81 N9          2.7460    4.6870   -0.2660 n         1 MOL     -0.458562
     82 C25         1.6270    4.7060    0.6400 c3        1 MOL      0.090153
     83 C26         1.4640    3.4310    1.4400 c         1 MOL      0.386338
     84 O13         1.9800    2.4400    0.9730 o         1 MOL     -0.332928
     85 C27         0.3680    4.9710   -0.2510 c3        1 MOL     -0.091526
     86 C28         0.2330    6.3520   -0.8780 ca        1 MOL      0.123949
     87 C29         0.4460    7.5430   -0.1920 ca        1 MOL     -0.216984
     88 C30        -0.2400    6.4390   -2.2500 ca        1 MOL     -0.216984
     89 C31         0.2310    8.7700   -0.7790 ca        1 MOL     -0.201939
     90 C32        -0.3070    7.7130   -2.8860 ca        1 MOL     -0.201939
     91 C33        -0.0730    8.8700   -2.1420 ca        1 MOL      0.268886
     92 O14        -0.3010   10.1180   -2.6430 oh        1 MOL     -0.434199
     93 H37         2.6430    4.8170   -1.2600 hn        1 MOL      0.251319
     94 H38         1.7550    5.5720    1.2900 h1        1 MOL      0.093141
     95 H39        -0.5230    4.8600    0.3680 hc        1 MOL      0.017601
     96 H40         0.2590    4.2430   -1.0580 hc        1 MOL      0.017601
     97 H41         0.7330    7.5010    0.8420 ha        1 MOL      0.138504
     98 H42        -0.4490    5.5490   -2.8180 ha        1 MOL      0.138504
     99 H43         0.3270    9.6830   -0.2020 ha        1 MOL      0.150939
    100 H44        -0.5630    7.8150   -3.9290 ha        1 MOL      0.150939
    101 H45        -0.5670   10.0280   -3.5570 ho        1 MOL      0.345029
    102 N10         0.8180    3.4670    2.6210 n         1 MOL     -0.576909
    103 C34         0.6510    2.2460    3.5060 c3        1 MOL      0.026705
    104 C35        -0.0630    1.0550    2.9000 c         1 MOL      0.571599
    105 O15         0.3500    0.3620    1.9850 o         1 MOL     -0.533811
    106 C36         1.9620    1.9910    4.3000 c3        1 MOL      0.309402
    107 C37         1.8770    0.9610    5.5280 c3        1 MOL     -0.403883
    108 C38         2.7090    3.2570    4.6130 c3        1 MOL     -0.110690
    109 C39         1.2220    1.5830    6.7680 c3        1 MOL     -0.026865
    110 H46         0.6310    4.3940    2.9790 hn        1 MOL      0.330003
    111 H47        -0.0210    2.5140    4.3270 h1        1 MOL      0.041476
    112 H48         2.5790    1.4790    3.5580 hc        1 MOL     -0.042939
    113 H49         2.9060    0.7950    5.8280 hc        1 MOL      0.152208
    114 H50         1.4550   -0.0240    5.3040 hc        1 MOL      0.152208
    115 H51         3.0290    3.7310    3.6940 hc        1 MOL      0.030908
    116 H52         2.1140    4.0220    5.1190 hc        1 MOL      0.030908
    117 H53         3.5480    3.0230    5.2820 hc        1 MOL      0.030908
    118 H54         1.7420    2.4330    7.2220 hc        1 MOL      0.013301
    119 H55         0.2060    1.9100    6.5330 hc        1 MOL      0.013301
    120 H56         1.1590    0.8650    7.5820 hc        1 MOL      0.013301
    121 N11        -1.1750    0.6610    3.5310 n         1 MOL     -0.547137
    122 C40        -1.7980   -0.6070    3.2940 c3        1 MOL      0.092473
    123 C41        -2.8640   -0.5340    2.1360 c         1 MOL      0.319270
    124 O16        -3.5080   -1.5610    1.9290 o         1 MOL     -0.497181
    125 C42        -2.5040   -1.2510    4.4700 c3        1 MOL      0.179893
    126 O17        -1.6280   -1.2050    5.5320 oh        1 MOL     -0.680404
    127 H57        -1.5220    1.2940    4.2340 hn        1 MOL      0.299645
    128 H58        -1.1140   -1.3870    2.9460 h1        1 MOL      0.239396
    129 H59        -2.8680   -2.2710    4.3750 h1        1 MOL      0.057909
    130 H60        -3.3690   -0.6530    4.7980 h1        1 MOL      0.057909
    131 H61        -1.9070   -0.5900    6.2170 ho        1 MOL      0.424788
    132 N12        -3.1330    0.5560    1.3920 n         1 MOL     -0.284587
    133 C43        -4.2280    0.5400    0.3720 c3        1 MOL     -0.001134
    134 C44        -3.7470   -0.4220   -0.7780 c         1 MOL      0.778226
    135 O18        -2.5500   -0.4690   -1.0920 o         1 MOL     -0.659072
    136 C45        -4.6650    1.9010   -0.2130 c3        1 MOL     -0.193437
    137 H62        -2.6780    1.4550    1.4520 hn        1 MOL      0.209720
    138 H63        -5.1650    0.1510    0.7830 h1        1 MOL      0.074860
    139 H64        -4.8050    2.6790    0.5380 hc        1 MOL      0.069631
    140 H65        -3.9510    2.3230   -0.9130 hc        1 MOL      0.069631
    141 H66        -5.6420    1.9660   -0.6940 hc        1 MOL      0.069631
    142 N13        -4.6150   -1.0490   -1.5790 n         1 MOL     -0.718252
    143 C46        -6.0500   -1.1670   -1.3410 c3        1 MOL      0.229549
    144 C47        -6.9820   -0.0870   -1.8790 c         1 MOL      0.605233
    145 O19        -6.6800    0.6160   -2.8010 o         1 MOL     -0.558929
    146 C48        -6.4590   -2.4380   -2.0150 c3        1 MOL     -0.218853
    147 H67        -4.2590   -1.6500   -2.3170 hn        1 MOL      0.353137
    148 H68        -6.1120   -1.3510   -0.2620 h1        1 MOL      0.079150
    149 H69        -6.0430   -3.3240   -1.5270 hc        1 MOL      0.057689
    150 H70        -7.5440   -2.5560   -2.0440 hc        1 MOL      0.057689
    151 H71        -6.1130   -2.4190   -3.0420 hc        1 MOL      0.057689
    152 N14        -8.2300    0.0270   -1.3010 n         1 MOL     -0.557097
    153 C49        -8.8170   -0.7350   -0.2030 c3        1 MOL      0.056606
    154 C50        -8.8460    0.3070    0.9150 c         1 MOL      0.449672
    155 O20        -8.5220    0.0020    2.0980 o         1 MOL     -0.551709
    156 C51       -10.0880   -1.5050   -0.6410 c3        1 MOL      0.096926
    157 C52       -11.3170   -0.6100   -0.7650 c3        1 MOL     -0.133191
    158 C53       -11.2900    0.3330   -1.9990 c         1 MOL      0.655624
    159 O21       -12.1570    0.1490   -2.8810 o         1 MOL     -0.653718
    160 O22       -10.5260    1.3240   -2.0440 o         1 MOL     -0.653718
    161 H72        -8.8320    0.7440   -1.6880 hn        1 MOL      0.284360
    162 H73        -8.1730   -1.4210    0.3500 h1        1 MOL     -0.010785
    163 H74       -10.3620   -2.2440    0.1220 hc        1 MOL     -0.004805
    164 H75        -9.9050   -2.0440   -1.5650 hc        1 MOL     -0.004805
    165 H76       -11.3820   -0.0720    0.1780 hc        1 MOL      0.016339
    166 H77       -12.2060   -1.2480   -0.7930 hc        1 MOL      0.016339
    167 N15        -9.2180    1.5460    0.5700 n         1 MOL     -0.255860
    168 C54        -9.3990    2.6620    1.5010 c3        1 MOL     -0.039738
    169 H78       -10.4460    2.9650    1.5050 h1        1 MOL      0.049683
    170 H79        -9.1090    2.3490    2.5040 h1        1 MOL      0.049683
    171 H80        -8.7790    3.5020    1.1880 h1        1 MOL      0.049683
    172 H81        -9.5610    1.6640   -0.3650 hn        1 MOL      0.226880
    173 Ca1         2.0800    0.3990   -0.6860 Ca        1 MOL      1.770361
    174 O23         2.5150    2.2220   -2.6460 oh        1 MOL     -0.840180
    175 H82         3.3870    2.4170   -2.9950 ho        1 MOL      0.421843
    176 H83         1.9050    2.6700   -3.2240 ho        1 MOL      0.421843
    177 O24         0.0060   -1.2000   -0.7380 oh        1 MOL     -0.840180
    178 H84         0.1930   -1.7620   -1.4880 ho        1 MOL      0.421843
    179 H85        -0.9510   -1.1660   -0.6860 ho        1 MOL      0.421843
    180 O25        -0.0970    1.9510   -1.4130 oh        1 MOL     -0.840180
    181 H86        -0.7750    1.8180   -0.7600 ho        1 MOL      0.421843
    182 H87        -0.4440    2.6180   -1.9950 ho        1 MOL      0.421843
@<TRIPOS>BOND
     1    1    2 1   
     2    1    4 1   
     3    1    5 1   
     4    1    6 1   
     5    2    3 2   
     6    2    7 1   
     7    7    8 1   
     8    7   15 1   
     9    8    9 1   
    10    8   11 1   
    11    8   16 1   
    12    9   10 2   
    13    9   19 1   
    14   11   12 1   
    15   11   17 1   
    16   11   18 1   
    17   12   13 1   
    18   12   14 1   
    19   19   20 1   
    20   19   28 1   
    21   20   21 1   
    22   20   23 1   
    23   20   29 1   
    24   21   22 2   
    25   21   41 1   
    26   23   24 1   
    27   23   30 1   
    28   23   31 1   
    29   24   25 1   
    30   24   32 1   
    31   24   33 1   
    32   25   26 1   
    33   25   34 1   
    34   25   35 1   
    35   26   27 1   
    36   26   36 1   
    37   26   37 1   
    38   27   38 1   
    39   27   39 1   
    40   27   40 1   
    41   41   42 1   
    42   41   49 1   
    43   42   43 1   
    44   42   45 1   
    45   42   50 1   
    46   43   44 2   
    47   43   53 1   
    48   45   46 1   
    49   45   51 1   
    50   45   52 1   
    51   46   47 1   
    52   46   48 1   
    53   53   54 1   
    54   53   57 1   
    55   54   55 1   
    56   54   58 1   
    57   54   59 1   
    58   55   56 2   
    59   55   60 1   
    60   60   61 1   
    61   60   68 1   
    62   61   62 1   
    63   61   64 1   
    64   61   69 1   
    65   62   63 2   
    66   62   74 1   
    67   64   65 1   
    68   64   70 1   
    69   64   71 1   
    70   65   66 1   
    71   65   67 2   
    72   66   72 1   
    73   66   73 1   
    74   74   75 1   
    75   74   78 1   
    76   75   76 1   
    77   75   79 1   
    78   75   80 1   
    79   76   77 2   
    80   76   81 1   
    81   81   82 1   
    82   81   93 1   
    83   82   83 1   
    84   82   85 1   
    85   82   94 1   
    86   83   84 2   
    87   83  102 1   
    88   85   86 1   
    89   85   95 1   
    90   85   96 1   
    91   86   87 ar  
    92   86   88 ar  
    93   87   89 ar  
    94   87   97 1   
    95   88   90 ar  
    96   88   98 1   
    97   89   91 ar  
    98   89   99 1   
    99   90   91 ar  
   100   90  100 1   
   101   91   92 1   
   102   92  101 1   
   103  102  103 1   
   104  102  110 1   
   105  103  104 1   
   106  103  106 1   
   107  103  111 1   
   108  104  105 2   
   109  104  121 1   
   110  106  107 1   
   111  106  108 1   
   112  106  112 1   
   113  107  109 1   
   114  107  113 1   
   115  107  114 1   
   116  108  115 1   
   117  108  116 1   
   118  108  117 1   
   119  109  118 1   
   120  109  119 1   
   121  109  120 1   
   122  121  122 1   
   123  121  127 1   
   124  122  123 1   
   125  122  125 1   
   126  122  128 1   
   127  123  124 2   
   128  123  132 1   
   129  125  126 1   
   130  125  129 1   
   131  125  130 1   
   132  126  131 1   
   133  132  133 1   
   134  132  137 1   
   135  133  134 1   
   136  133  136 1   
   137  133  138 1   
   138  134  135 2   
   139  134  142 1   
   140  136  139 1   
   141  136  140 1   
   142  136  141 1   
   143  142  143 1   
   144  142  147 1   
   145  143  144 1   
   146  143  146 1   
   147  143  148 1   
   148  144  145 2   
   149  144  152 1   
   150  146  149 1   
   151  146  150 1   
   152  146  151 1   
   153  152  153 1   
   154  152  161 1   
   155  153  154 1   
   156  153  156 1   
   157  153  162 1   
   158  154  155 2   
   159  154  167 1   
   160  156  157 1   
   161  156  163 1   
   162  156  164 1   
   163  157  158 1   
   164  157  165 1   
   165  157  166 1   
   166  158  159 1   
   167  158  160 1   
   168  167  168 1   
   169  167  172 1   
   170  168  169 1   
   171  168  170 1   
   172  168  171 1   
   173  174  175 1   
   174  174  176 1   
   175  177  178 1   
   176  177  179 1   
   177  180  181 1   
   178  180  182 1   
@<TRIPOS>SUBSTRUCTURE
     1 MOL         1 TEMP              0 ****  ****    0 ROOT
