@<TRIPOS>MOLECULE
MOL
  178   175     1     0     0
SMALL
resp


@<TRIPOS>ATOM
      1 C1          0.7150    7.0720   -2.0590 c3        1 MOL     -0.419964
      2 C2          1.9090    6.9200   -1.2020 c         1 MOL      0.721645
      3 O1          1.9360    7.4130   -0.0900 o         1 MOL     -0.592755
      4 H1          0.4030    8.1160   -2.0640 hc        1 MOL      0.103871
      5 H2          0.9540    6.7600   -3.0760 hc        1 MOL      0.103871
      6 H3         -0.0930    6.4530   -1.6690 hc        1 MOL      0.103871
      7 N1          3.0580    6.4610   -1.7670 n         1 MOL     -0.601797
      8 C3          4.4080    6.4680   -1.1850 c3        1 MOL      0.430105
      9 C4          4.6060    5.2460   -0.2730 c         1 MOL      0.414849
     10 O2          4.8910    4.0910   -0.7140 o         1 MOL     -0.547787
     11 C5          5.4400    6.7340   -2.1720 c3        1 MOL     -0.568326
     12 C6          6.8690    6.8990   -1.7060 c         1 MOL      0.891262
     13 O3          7.7900    7.1990   -2.4560 o         1 MOL     -0.769108
     14 O4          7.1160    6.7730   -0.4820 o         1 MOL     -0.769108
     15 H4          3.0070    5.9430   -2.6300 hn        1 MOL      0.285762
     16 H5          4.3600    7.3040   -0.4840 h1        1 MOL      0.007562
     17 H6          5.1780    7.7160   -2.5660 hc        1 MOL      0.093823
     18 H7          5.3550    5.9170   -2.8860 hc        1 MOL      0.093823
     19 N2          4.3970    5.4280    1.0370 n         1 MOL     -0.531389
     20 C7          4.1840    4.3190    1.9840 c3        1 MOL      0.576607
     21 C8          2.7830    3.5750    1.7320 c         1 MOL      0.292282
     22 O5          1.9660    3.9500    0.9020 o         1 MOL     -0.486357
     23 C9          4.1890    4.8700    3.4360 c3        1 MOL     -0.408226
     24 H8          4.2390    6.3870    1.3090 hn        1 MOL      0.271077
     25 H9          5.0770    3.6950    1.9140 h1        1 MOL     -0.026009
     26 H10         3.3310    5.5480    3.4480 hc        1 MOL      0.092215
     27 H11         4.2550    4.0960    4.1930 hc        1 MOL      0.092215
     28 H12         5.1350    5.4130    3.5190 hc        1 MOL      0.092215
     29 N3          2.6050    2.4360    2.4080 n         1 MOL     -0.203658
     30 C10         3.6110    1.7030    3.1600 c3        1 MOL     -0.215802
     31 C11         4.2070    0.6290    2.2910 c         1 MOL      0.707101
     32 O6          3.4520    0.0460    1.5430 o         1 MOL     -0.532168
     33 C12         3.0240    1.0810    4.4510 c3        1 MOL     -0.290967
     34 C13         1.5890    0.5630    4.4300 c         1 MOL      0.753046
     35 O7          1.1720    0.1330    5.5560 o         1 MOL     -0.695270
     36 O8          0.9370    0.2810    3.4040 o         1 MOL     -0.695270
     37 H13         1.7810    1.9130    2.1310 hn        1 MOL      0.191082
     38 H14         4.4850    2.2620    3.4890 h1        1 MOL      0.075643
     39 H15         3.0340    1.8480    5.2120 hc        1 MOL      0.083188
     40 H16         3.6260    0.2020    4.6690 hc        1 MOL      0.083188
     41 N4          5.5450    0.3920    2.2760 n         1 MOL     -0.618828
     42 C14         6.1770   -0.6660    1.4220 c3        1 MOL      0.038957
     43 C15         6.3460   -0.0950   -0.0030 c         1 MOL      0.571928
     44 O9          6.2490    1.1150   -0.1650 o         1 MOL     -0.453702
     45 H17         6.0740    0.9380    2.9330 hn        1 MOL      0.344621
     46 H18         5.5600   -1.5580    1.3720 h1        1 MOL      0.077115
     47 H19         7.1520   -0.9230    1.8350 h1        1 MOL      0.077115
     48 N5          6.5060   -0.9070   -1.0420 n         1 MOL     -0.780103
     49 C16         6.6200   -2.3730   -1.1080 c3        1 MOL      0.636461
     50 C17         5.4620   -2.9780   -1.9330 c         1 MOL      0.254492
     51 O10         4.6080   -2.2220   -2.5080 o         1 MOL     -0.485915
     52 C18         8.0010   -2.7240   -1.5760 c3        1 MOL     -0.326932
     53 C19         8.4010   -4.1680   -1.2350 c         1 MOL      0.641659
     54 N6          9.6300   -4.3880   -1.3640 n         1 MOL     -0.726564
     55 O11         7.6430   -5.0380   -0.8770 o         1 MOL     -0.542980
     56 H20         6.4770   -0.4650   -1.9510 hn        1 MOL      0.375359
     57 H21         6.5700   -2.7800   -0.1030 h1        1 MOL     -0.091400
     58 H22         8.7610   -2.1030   -1.0960 hc        1 MOL      0.082000
     59 H23         8.0630   -2.5650   -2.6450 hc        1 MOL      0.082000
     60 H24        10.1800   -3.5780   -1.5810 hn        1 MOL      0.363892
     61 H25         9.9570   -5.3510   -1.3720 hn        1 MOL      0.363892
     62 N7          5.4210   -4.3010   -2.1400 n         1 MOL     -0.223406
     63 C20         4.5080   -4.9830   -3.0510 c3        1 MOL     -0.290153
     64 C21         3.0480   -4.9420   -2.6030 c         1 MOL      0.511513
     65 O12         2.1450   -4.9890   -3.4680 o         1 MOL     -0.550652
     66 H26         6.1590   -4.8840   -1.7580 hn        1 MOL      0.231325
     67 H27         4.8080   -6.0390   -3.1220 h1        1 MOL      0.142723
     68 H28         4.5870   -4.4420   -3.9850 h1        1 MOL      0.142723
     69 N8          2.7560   -5.0360   -1.2960 n         1 MOL     -0.078232
     70 C22         1.4100   -5.5690   -0.8440 c3        1 MOL     -0.466515
     71 C23         0.4610   -4.4680   -0.3860 c         1 MOL      0.839636
     72 O13         0.7660   -3.6190    0.4080 o         1 MOL     -0.555758
     73 C24         1.7030   -6.5640    0.2560 c3        1 MOL      0.470298
     74 C25         2.5440   -7.8330   -0.1000 c3        1 MOL     -0.463574
     75 O14         2.5060   -5.9850    1.2720 oh        1 MOL     -0.564000
     76 H29         3.4540   -4.8610   -0.5880 hn        1 MOL      0.162872
     77 H30         0.9450   -6.0970   -1.6680 h1        1 MOL      0.181465
     78 H31         0.7750   -6.9260    0.6950 h1        1 MOL      0.023855
     79 H32         1.9080   -5.6180    1.9270 ho        1 MOL      0.343539
     80 H33         3.5790   -7.4840   -0.1470 hc        1 MOL      0.114772
     81 H34         2.3690   -8.6280    0.6300 hc        1 MOL      0.114772
     82 H35         2.0850   -8.1460   -1.0410 hc        1 MOL      0.114772
     83 N9         -0.7590   -4.5650   -1.0310 n         1 MOL     -0.665020
     84 C26        -1.8570   -3.6000   -0.8670 c3        1 MOL      0.065334
     85 C27        -2.6760   -3.8090    0.4300 c         1 MOL      0.428532
     86 O15        -2.9520   -4.9250    0.9320 o         1 MOL     -0.546131
     87 C28        -2.7790   -3.7890   -2.1010 c3        1 MOL      0.175936
     88 C29        -3.9300   -2.8220   -2.0620 c3        1 MOL      0.206987
     89 C30        -1.8960   -3.5750   -3.4040 c3        1 MOL     -0.315205
     90 C31        -4.8800   -2.9760   -3.2490 c3        1 MOL     -0.187729
     91 H36        -0.9760   -5.3060   -1.6850 hn        1 MOL      0.321250
     92 H37        -1.4560   -2.5820   -0.8610 h1        1 MOL      0.027612
     93 H38        -3.2240   -4.7810   -2.0110 hc        1 MOL     -0.018689
     94 H39        -3.5510   -1.8030   -2.0270 hc        1 MOL     -0.053470
     95 H40        -4.5750   -3.0050   -1.2020 hc        1 MOL     -0.053470
     96 H41        -1.2490   -4.4220   -3.6070 hc        1 MOL      0.079813
     97 H42        -2.5150   -3.4200   -4.2830 hc        1 MOL      0.079813
     98 H43        -1.3680   -2.6230   -3.3040 hc        1 MOL      0.079813
     99 H44        -4.4970   -2.4190   -4.1130 hc        1 MOL      0.022663
    100 H45        -4.9210   -4.0370   -3.4920 hc        1 MOL      0.022663
    101 H46        -5.8480   -2.5400   -3.0290 hc        1 MOL      0.022663
    102 N10        -3.0690   -2.6990    1.0400 n         1 MOL     -0.117736
    103 C32        -3.7320   -2.6230    2.3450 c3        1 MOL      0.036797
    104 C33        -5.0190   -1.8060    2.3150 c         1 MOL      0.374504
    105 O16        -5.8190   -1.9260    3.2630 o         1 MOL     -0.564477
    106 C34        -2.8140   -1.9920    3.4200 c3        1 MOL     -0.033763
    107 C35        -1.5770   -2.7470    3.3790 c         1 MOL      0.713031
    108 O17        -0.5050   -2.3000    2.8740 o         1 MOL     -0.719324
    109 O18        -1.6790   -3.8580    3.9730 o         1 MOL     -0.719324
    110 H47        -2.6810   -1.7970    0.7840 hn        1 MOL     -0.089472
    111 H48        -4.0780   -3.6070    2.6680 h1        1 MOL      0.091484
    112 H49        -3.2840   -2.0390    4.4000 hc        1 MOL      0.022967
    113 H50        -2.6200   -1.0050    2.9980 hc        1 MOL      0.022967
    114 N11        -5.2470   -0.9150    1.3700 n         1 MOL     -0.400111
    115 C36        -6.4340   -0.0850    1.1520 c3        1 MOL      0.600448
    116 C37        -6.1580    1.3700    0.5600 c         1 MOL      0.084857
    117 O19        -6.7110    1.6530   -0.4920 o         1 MOL     -0.429451
    118 C38        -7.4200   -0.9520    0.3100 c3        1 MOL     -0.421091
    119 C39        -8.7990   -0.4750   -0.0240 ca        1 MOL      0.102190
    120 C40        -9.4850    0.4380    0.8470 ca        1 MOL     -0.088066
    121 C41        -9.4120   -0.9530   -1.1930 ca        1 MOL     -0.088066
    122 C42       -10.7910    0.7630    0.5240 ca        1 MOL     -0.197947
    123 C43       -10.7480   -0.5380   -1.4880 ca        1 MOL     -0.197947
    124 C44       -11.4380    0.3920   -0.6650 ca        1 MOL     -0.065176
    125 H51        -4.5320   -0.7780    0.6670 hn        1 MOL      0.227037
    126 H52        -6.9040    0.0590    2.1230 h1        1 MOL     -0.044017
    127 H53        -7.5220   -1.9430    0.7560 hc        1 MOL      0.131378
    128 H54        -6.8950   -1.0920   -0.6260 hc        1 MOL      0.131378
    129 H55        -9.1200    0.7450    1.8130 ha        1 MOL      0.108427
    130 H56        -8.8630   -1.6080   -1.8410 ha        1 MOL      0.108427
    131 H57       -11.4190    1.3910    1.1510 ha        1 MOL      0.106928
    132 H58       -11.2320   -0.8820   -2.3860 ha        1 MOL      0.106928
    133 H59       -12.4350    0.7070   -0.9020 ha        1 MOL      0.091817
    134 N12        -5.3800    2.2850    1.1460 n         1 MOL      0.019455
    135 C45        -5.2480    3.6390    0.6270 c3        1 MOL      0.036373
    136 C46        -4.6090    3.6690   -0.7900 c         1 MOL      0.249930
    137 O20        -4.5690    4.6780   -1.4290 o         1 MOL     -0.487992
    138 C47        -4.3200    4.4300    1.5310 c3        1 MOL     -0.151707
    139 C48        -4.4990    3.6760    2.8650 c3        1 MOL     -0.019300
    140 C49        -4.7640    2.2200    2.5050 c3        1 MOL     -0.142319
    141 H60        -6.1680    4.2190    0.5730 h1        1 MOL      0.073746
    142 H61        -3.2810    4.1750    1.3230 hc        1 MOL      0.097550
    143 H62        -4.5390    5.4860    1.7090 hc        1 MOL      0.097550
    144 H63        -3.6160    3.7190    3.4920 hc        1 MOL      0.022144
    145 H64        -5.3800    4.0740    3.3680 hc        1 MOL      0.022144
    146 H65        -3.7870    1.7480    2.3790 h1        1 MOL      0.102781
    147 H66        -5.3200    1.6750    3.2700 h1        1 MOL      0.102781
    148 N13        -3.9730    2.5660   -1.2120 n         1 MOL     -0.018839
    149 C50        -3.4310    2.4710   -2.5580 c3        1 MOL     -0.282556
    150 C51        -4.5620    2.5140   -3.6300 c         1 MOL      0.614505
    151 O21        -4.4030    2.9960   -4.7470 o         1 MOL     -0.589884
    152 C52        -2.7030    1.1270   -2.6700 c3        1 MOL      0.146092
    153 C53        -1.6080    0.7760   -1.6360 c3        1 MOL     -0.191068
    154 C54        -2.0420    0.1200   -0.3040 c         1 MOL      0.683592
    155 O22        -1.1800   -0.5030    0.3210 o         1 MOL     -0.589449
    156 O23        -3.1620    0.2660    0.1940 o         1 MOL     -0.589449
    157 H67        -3.8330    1.7430   -0.6460 hn        1 MOL      0.130096
    158 H68        -2.7790    3.3000   -2.8270 h1        1 MOL      0.123678
    159 H69        -2.3110    1.0720   -3.6870 hc        1 MOL     -0.022791
    160 H70        -3.4660    0.3580   -2.5370 hc        1 MOL     -0.022791
    161 H71        -0.9920    1.6450   -1.3860 hc        1 MOL      0.053206
    162 H72        -0.9240    0.0380   -2.0490 hc        1 MOL      0.053206
    163 N14        -5.7060    1.9550   -3.3170 n         1 MOL     -0.236722
    164 C55        -6.8980    2.0280   -4.1800 c3        1 MOL     -0.352442
    165 H73        -7.2490    3.0580   -4.2270 h1        1 MOL      0.129910
    166 H74        -6.6430    1.6860   -5.1830 h1        1 MOL      0.129910
    167 H75        -7.6850    1.3950   -3.7690 h1        1 MOL      0.129910
    168 H76        -5.8240    1.7730   -2.3270 hn        1 MOL      0.227677
    169 Ca1         1.0540   -1.1650    1.1250 Ca        1 MOL      1.701043
    170 O24         2.5760   -2.9090    2.6570 oh        1 MOL     -0.911923
    171 O25         1.2890    1.1220   -0.2010 oh        1 MOL     -0.911923
    172 H77         3.1570   -2.8600    3.4130 ho        1 MOL      0.435909
    173 H78         2.1700    1.4310   -0.4180 ho        1 MOL      0.435909
    174 H79         2.0120   -3.6560    2.8250 ho        1 MOL      0.435909
    175 H80         0.7180    1.8510   -0.4090 ho        1 MOL      0.435909
    176 O26         2.2970   -1.6320   -1.1780 oh        1 MOL     -0.911923
    177 H81         2.4940   -0.7830   -1.5680 ho        1 MOL      0.435909
    178 H82         2.8630   -2.2490   -1.6420 ho        1 MOL      0.435909
@<TRIPOS>BOND
     1    1    2 1   
     2    1    4 1   
     3    1    5 1   
     4    1    6 1   
     5    2    3 2   
     6    2    7 1   
     7    7    8 1   
     8    7   15 1   
     9    8    9 1   
    10    8   11 1   
    11    8   16 1   
    12    9   10 2   
    13    9   19 1   
    14   11   12 1   
    15   11   17 1   
    16   11   18 1   
    17   12   13 1   
    18   12   14 1   
    19   19   20 1   
    20   19   24 1   
    21   20   21 1   
    22   20   23 1   
    23   20   25 1   
    24   21   22 2   
    25   21   29 1   
    26   23   26 1   
    27   23   27 1   
    28   23   28 1   
    29   29   30 1   
    30   29   37 1   
    31   30   31 1   
    32   30   33 1   
    33   30   38 1   
    34   31   32 2   
    35   31   41 1   
    36   33   34 1   
    37   33   39 1   
    38   33   40 1   
    39   34   35 1   
    40   34   36 1   
    41   41   42 1   
    42   41   45 1   
    43   42   43 1   
    44   42   46 1   
    45   42   47 1   
    46   43   44 2   
    47   43   48 1   
    48   48   49 1   
    49   48   56 1   
    50   49   50 1   
    51   49   52 1   
    52   49   57 1   
    53   50   51 2   
    54   50   62 1   
    55   52   53 1   
    56   52   58 1   
    57   52   59 1   
    58   53   54 1   
    59   53   55 2   
    60   54   60 1   
    61   54   61 1   
    62   62   63 1   
    63   62   66 1   
    64   63   64 1   
    65   63   67 1   
    66   63   68 1   
    67   64   65 2   
    68   64   69 1   
    69   69   70 1   
    70   69   76 1   
    71   70   71 1   
    72   70   73 1   
    73   70   77 1   
    74   71   72 2   
    75   71   83 1   
    76   73   74 1   
    77   73   75 1   
    78   73   78 1   
    79   74   80 1   
    80   74   81 1   
    81   74   82 1   
    82   75   79 1   
    83   83   84 1   
    84   83   91 1   
    85   84   85 1   
    86   84   87 1   
    87   84   92 1   
    88   85   86 2   
    89   85  102 1   
    90   87   88 1   
    91   87   89 1   
    92   87   93 1   
    93   88   90 1   
    94   88   94 1   
    95   88   95 1   
    96   89   96 1   
    97   89   97 1   
    98   89   98 1   
    99   90   99 1   
   100   90  100 1   
   101   90  101 1   
   102  102  103 1   
   103  102  110 1   
   104  103  104 1   
   105  103  106 1   
   106  103  111 1   
   107  104  105 2   
   108  104  114 1   
   109  106  107 1   
   110  106  112 1   
   111  106  113 1   
   112  107  108 1   
   113  107  109 1   
   114  114  115 1   
   115  114  125 1   
   116  115  116 1   
   117  115  118 1   
   118  115  126 1   
   119  116  117 2   
   120  116  134 1   
   121  118  119 1   
   122  118  127 1   
   123  118  128 1   
   124  119  120 ar  
   125  119  121 ar  
   126  120  122 ar  
   127  120  129 1   
   128  121  123 ar  
   129  121  130 1   
   130  122  124 ar  
   131  122  131 1   
   132  123  124 ar  
   133  123  132 1   
   134  124  133 1   
   135  134  135 1   
   136  134  140 1   
   137  135  136 1   
   138  135  138 1   
   139  135  141 1   
   140  136  137 2   
   141  136  148 1   
   142  138  139 1   
   143  138  142 1   
   144  138  143 1   
   145  139  140 1   
   146  139  144 1   
   147  139  145 1   
   148  140  146 1   
   149  140  147 1   
   150  148  149 1   
   151  148  157 1   
   152  149  150 1   
   153  149  152 1   
   154  149  158 1   
   155  150  151 2   
   156  150  163 1   
   157  152  153 1   
   158  152  159 1   
   159  152  160 1   
   160  153  154 1   
   161  153  161 1   
   162  153  162 1   
   163  154  155 1   
   164  154  156 1   
   165  163  164 1   
   166  163  168 1   
   167  164  165 1   
   168  164  166 1   
   169  164  167 1   
   170  170  172 1   
   171  170  174 1   
   172  171  173 1   
   173  171  175 1   
   174  176  177 1   
   175  176  178 1   
@<TRIPOS>SUBSTRUCTURE
     1 MOL         1 TEMP              0 ****  ****    0 ROOT
