@<TRIPOS>MOLECULE
MOL
  178   175     1     0     0
SMALL
resp


@<TRIPOS>ATOM
      1 C1          4.8690   -1.8390    2.7920 c3        1 MOL     -0.314764
      2 C2          6.1840   -1.1490    2.3440 c         1 MOL      0.614393
      3 O1          6.1130   -0.0660    1.7740 o         1 MOL     -0.537609
      4 H1          4.3040   -2.1500    1.9130 hc        1 MOL      0.075510
      5 H2          5.1050   -2.7130    3.3990 hc        1 MOL      0.075510
      6 H3          4.2720   -1.1400    3.3780 hc        1 MOL      0.075510
      7 N1          7.3010   -1.7830    2.6620 n         1 MOL     -0.439605
      8 C3          8.6050   -1.1030    2.6760 c3        1 MOL     -0.005863
      9 C4          9.0650   -0.8770    1.2010 c         1 MOL      0.449223
     10 O2          9.5240   -1.8820    0.5700 o         1 MOL     -0.513980
     11 C5          9.5140   -1.9500    3.5770 c3        1 MOL     -0.049386
     12 C6         10.9190   -1.3340    3.8140 c         1 MOL      0.728791
     13 O3         11.7810   -2.0500    4.2950 o         1 MOL     -0.731563
     14 O4         10.9730   -0.0810    3.5630 o         1 MOL     -0.731563
     15 H4          7.2630   -2.7220    3.0280 hn        1 MOL      0.294451
     16 H5          8.5470   -0.0880    3.0920 h1        1 MOL      0.038138
     17 H6          9.5900   -2.9240    3.0870 hc        1 MOL     -0.010706
     18 H7          9.0070   -2.1890    4.5120 hc        1 MOL     -0.010706
     19 N2          9.0700    0.3830    0.6800 n         1 MOL     -0.399289
     20 C7          9.3740    0.6530   -0.7480 c3        1 MOL      0.168268
     21 C8          8.1240    0.3770   -1.5720 c         1 MOL      0.422603
     22 O5          8.1730    0.1490   -2.7910 o         1 MOL     -0.536813
     23 C9          9.9040    2.0800   -0.8430 c3        1 MOL     -0.367687
     24 H8          9.0210    1.1700    1.3180 hn        1 MOL      0.290470
     25 H9         10.1110   -0.0900   -1.0490 h1        1 MOL      0.084200
     26 H10         9.1710    2.7820   -0.4520 hc        1 MOL      0.099799
     27 H11        10.7390    2.2180   -0.1550 hc        1 MOL      0.099799
     28 H12        10.3880    2.2260   -1.8050 hc        1 MOL      0.099799
     29 N3          6.9160    0.3710   -0.9030 n         1 MOL     -0.248315
     30 C10         5.6110   -0.1790   -1.3290 c3        1 MOL      0.018652
     31 C11         4.8320    0.4070   -2.5000 c         1 MOL      0.497903
     32 O6          4.3170   -0.2650   -3.3630 o         1 MOL     -0.455200
     33 C12         5.6290   -1.6260   -1.2070 c3        1 MOL     -0.024327
     34 C13         4.2390   -2.3150   -1.2830 c         1 MOL      0.628071
     35 O7          4.1130   -3.4240   -1.7920 o         1 MOL     -0.717011
     36 O8          3.2720   -1.8330   -0.6120 o         1 MOL     -0.717011
     37 H13         6.8130    0.6770    0.0520 hn        1 MOL      0.162918
     38 H14         4.8860    0.0870   -0.5630 h1        1 MOL      0.039033
     39 H15         6.0800   -1.8990   -0.2560 hc        1 MOL      0.015833
     40 H16         6.2840   -2.0050   -1.9950 hc        1 MOL      0.015833
     41 N4          5.1220    1.7090   -2.7780 n         1 MOL     -0.208019
     42 C14         4.7760    2.5010   -3.9360 c3        1 MOL     -0.219410
     43 C15         3.2880    2.8760   -4.1580 c         1 MOL      0.575311
     44 O9          2.9530    3.4080   -5.2410 o         1 MOL     -0.571802
     45 H17         5.7960    2.1490   -2.1760 hn        1 MOL      0.182169
     46 H18         4.9650    1.8710   -4.8090 h1        1 MOL      0.094993
     47 H19         5.4050    3.3900   -4.0330 h1        1 MOL      0.094993
     48 N5          2.5030    2.7170   -3.0930 n         1 MOL     -0.313308
     49 C16         1.0940    3.2890   -3.1020 c3        1 MOL      0.178261
     50 C17         1.0410    4.4870   -2.1190 c         1 MOL      0.352196
     51 O10         1.6410    4.4510   -1.0290 o         1 MOL     -0.508642
     52 C18         0.0470    2.2620   -2.8100 c3        1 MOL     -0.130736
     53 C19         0.0650    1.0630   -3.8180 c         1 MOL      0.523598
     54 N6          0.0680   -0.2220   -3.4390 n         1 MOL     -0.831033
     55 O11         0.0370    1.3660   -5.0060 o         1 MOL     -0.551984
     56 H20         2.8410    2.2430   -2.2690 hn        1 MOL      0.182307
     57 H21         0.8960    3.6310   -4.1170 h1        1 MOL      0.021126
     58 H22        -0.8910    2.8150   -2.7120 hc        1 MOL      0.083425
     59 H23         0.2730    1.7910   -1.8570 hc        1 MOL      0.083425
     60 H24        -0.0520   -0.4460   -2.4590 hn        1 MOL      0.422848
     61 H25         0.0360   -0.9880   -4.0990 hn        1 MOL      0.422848
     62 N7          0.2980    5.5040   -2.4340 n         1 MOL     -0.342830
     63 C20        -0.1010    6.5810   -1.4640 c3        1 MOL     -0.016381
     64 C21        -1.6010    6.5400   -1.0680 c         1 MOL      0.518349
     65 O12        -2.4580    6.1120   -1.7770 o         1 MOL     -0.484091
     66 H26        -0.2820    5.5330   -3.2620 hn        1 MOL      0.256446
     67 H27         0.1610    7.6000   -1.7680 h1        1 MOL      0.070011
     68 H28         0.4260    6.4070   -0.5230 h1        1 MOL      0.070011
     69 N8         -1.8800    7.0300    0.1630 n         1 MOL     -0.350049
     70 C22        -3.1580    6.9610    0.8690 c3        1 MOL     -0.484434
     71 C23        -3.2760    5.7160    1.7030 c         1 MOL      0.754546
     72 O13        -4.4050    5.3920    2.1030 o         1 MOL     -0.615249
     73 C24        -3.4340    8.1770    1.6900 c3        1 MOL      0.621144
     74 C25        -2.5000    8.4180    2.8300 c3        1 MOL     -0.556239
     75 O14        -3.4620    9.4170    0.9480 oh        1 MOL     -0.668790
     76 H29        -1.1650    7.4760    0.7190 hn        1 MOL      0.219837
     77 H30        -3.9060    6.9340    0.0820 h1        1 MOL      0.196575
     78 H31        -4.3980    8.0820    2.1920 h1        1 MOL      0.017826
     79 H32        -2.5870    9.6370    0.6260 ho        1 MOL      0.394067
     80 H33        -2.7660    9.3830    3.2560 hc        1 MOL      0.136696
     81 H34        -2.8310    7.7220    3.6070 hc        1 MOL      0.136696
     82 H35        -1.4410    8.3000    2.5990 hc        1 MOL      0.136696
     83 N9         -2.2150    4.9020    1.9470 n         1 MOL     -0.347520
     84 C26        -2.1620    3.5860    2.5110 c3        1 MOL     -0.108769
     85 C27        -1.6360    2.6210    1.5070 c         1 MOL      0.563155
     86 O15        -0.6530    2.9670    0.8520 o         1 MOL     -0.491173
     87 C28        -1.4200    3.6130    3.8380 c3        1 MOL      0.275842
     88 C29        -2.0900    4.5830    4.7870 c3        1 MOL      0.058402
     89 C30        -1.3720    2.1970    4.3880 c3        1 MOL     -0.092624
     90 C31        -3.4350    4.1770    5.3170 c3        1 MOL     -0.117034
     91 H36        -1.3160    5.1550    1.5550 hn        1 MOL      0.228930
     92 H37        -3.1750    3.3100    2.8090 h1        1 MOL      0.079872
     93 H38        -0.4260    4.0490    3.7070 hc        1 MOL     -0.042511
     94 H39        -2.2300    5.5550    4.3160 hc        1 MOL     -0.040794
     95 H40        -1.3710    4.6180    5.6020 hc        1 MOL     -0.040794
     96 H41        -0.9790    2.2230    5.4120 hc        1 MOL      0.015665
     97 H42        -2.3710    1.7730    4.4280 hc        1 MOL      0.015665
     98 H43        -0.7130    1.5340    3.8310 hc        1 MOL      0.015665
     99 H44        -3.3000    3.2060    5.7960 hc        1 MOL      0.021508
    100 H45        -3.7780    4.9780    5.9750 hc        1 MOL      0.021508
    101 H46        -4.1470    3.9800    4.5090 hc        1 MOL      0.021508
    102 N10        -2.2270    1.4360    1.3550 n         1 MOL     -0.579374
    103 C32        -1.9210    0.3390    0.4540 c3        1 MOL      0.538148
    104 C33        -3.2710   -0.2510   -0.1630 c         1 MOL      0.254508
    105 O16        -3.2940   -1.4340   -0.5350 o         1 MOL     -0.427061
    106 C34        -1.1030   -0.7720    1.2580 c3        1 MOL     -0.280372
    107 C35        -0.3070   -1.7340    0.3630 c         1 MOL      0.767753
    108 O17         0.1560   -2.8170    0.8970 o         1 MOL     -0.743493
    109 O18         0.0690   -1.4080   -0.7680 o         1 MOL     -0.743493
    110 H47        -2.8870    1.1980    2.0800 hn        1 MOL      0.252074
    111 H48        -1.3070    0.7150   -0.3570 h1        1 MOL     -0.093912
    112 H49        -1.7380   -1.4670    1.8150 hc        1 MOL      0.073189
    113 H50        -0.3430   -0.3870    1.9350 hc        1 MOL      0.073189
    114 N11        -4.4550    0.3910   -0.1960 n         1 MOL     -0.324465
    115 C36        -5.7250   -0.2290   -0.6200 c3        1 MOL      0.142760
    116 C37        -6.0790   -1.4970    0.1920 c         1 MOL      0.389712
    117 O19        -6.0170   -1.4240    1.4070 o         1 MOL     -0.585047
    118 C38        -6.8730    0.7190   -0.2760 c3        1 MOL     -0.292358
    119 C39        -8.1950    0.3080   -0.8520 ca        1 MOL      0.074257
    120 C40        -8.6540    0.7490   -2.1460 ca        1 MOL     -0.152168
    121 C41        -9.0150   -0.6240   -0.1520 ca        1 MOL     -0.152168
    122 C42        -9.8020    0.1900   -2.7050 ca        1 MOL     -0.126569
    123 C43       -10.1510   -1.2000   -0.8000 ca        1 MOL     -0.126569
    124 C44       -10.5120   -0.8350   -2.0710 ca        1 MOL     -0.085289
    125 H51        -4.4880    1.3530    0.1020 hn        1 MOL      0.221720
    126 H52        -5.6320   -0.3970   -1.6850 h1        1 MOL      0.057693
    127 H53        -6.6210    1.6550   -0.7700 hc        1 MOL      0.124618
    128 H54        -6.9890    0.9500    0.7830 hc        1 MOL      0.124618
    129 H55        -8.0660    1.4930   -2.6770 ha        1 MOL      0.122481
    130 H56        -8.6790   -0.9680    0.8160 ha        1 MOL      0.122481
    131 H57       -10.1210    0.5830   -3.6620 ha        1 MOL      0.106815
    132 H58       -10.6620   -2.0600   -0.3720 ha        1 MOL      0.106815
    133 H59       -11.3730   -1.2930   -2.5220 ha        1 MOL      0.097990
    134 N12        -6.5500   -2.5800   -0.3950 n         1 MOL      0.086231
    135 C45        -7.1450   -3.7460    0.2270 c3        1 MOL     -0.011512
    136 C46        -6.2060   -4.6090    1.0630 c         1 MOL      0.276264
    137 O20        -6.6300   -5.3380    1.9340 o         1 MOL     -0.473276
    138 C47        -7.7840   -4.6020   -0.8820 c3        1 MOL     -0.074299
    139 C48        -6.9220   -4.2480   -2.0820 c3        1 MOL     -0.008924
    140 C49        -6.7480   -2.7920   -1.8420 c3        1 MOL      0.009764
    141 H60        -7.9720   -3.4480    0.8800 h1        1 MOL      0.071810
    142 H61        -7.7100   -5.6650   -0.7040 hc        1 MOL      0.041143
    143 H62        -8.8570   -4.3930   -0.9730 hc        1 MOL      0.041143
    144 H63        -5.9990   -4.8330   -2.0040 hc        1 MOL      0.023110
    145 H64        -7.3500   -4.4150   -3.0790 hc        1 MOL      0.023110
    146 H65        -5.8190   -2.4420   -2.3020 h1        1 MOL     -0.004215
    147 H66        -7.5640   -2.1730   -2.2140 h1        1 MOL     -0.004215
    148 N13        -4.8980   -4.4950    0.7600 n         1 MOL     -0.073835
    149 C50        -3.8900   -5.1670    1.5800 c3        1 MOL     -0.436817
    150 C51        -3.8720   -4.6780    3.0390 c         1 MOL      0.614515
    151 O21        -3.6900   -5.5120    3.9070 o         1 MOL     -0.551561
    152 C52        -2.4920   -4.9540    0.9700 c3        1 MOL      0.376151
    153 C53        -2.3550   -5.6300   -0.3480 c3        1 MOL     -0.202411
    154 C54        -1.0210   -5.2980   -0.9820 c         1 MOL      0.643705
    155 O22        -0.8850   -4.4480   -1.8310 o         1 MOL     -0.743445
    156 O23         0.0300   -5.7140   -0.4090 o         1 MOL     -0.743445
    157 H67        -4.5680   -3.8250    0.0820 hn        1 MOL      0.180530
    158 H68        -4.0680   -6.2410    1.6370 h1        1 MOL      0.167678
    159 H69        -1.7430   -5.3400    1.6450 hc        1 MOL     -0.041558
    160 H70        -2.3940   -3.8660    0.9030 hc        1 MOL     -0.041558
    161 H71        -3.0580   -5.2100   -1.0760 hc        1 MOL      0.018526
    162 H72        -2.4250   -6.7090   -0.2120 hc        1 MOL      0.018526
    163 N14        -4.0430   -3.3790    3.2540 n         1 MOL     -0.303094
    164 C55        -3.8110   -2.8920    4.6330 c3        1 MOL     -0.393559
    165 H73        -2.7900   -3.1270    4.9330 h1        1 MOL      0.142229
    166 H74        -3.9590   -1.8120    4.6680 h1        1 MOL      0.142229
    167 H75        -4.5110   -3.3770    5.3130 h1        1 MOL      0.142229
    168 H76        -3.8910   -2.7900    2.4490 hn        1 MOL      0.332450
    169 Ca1         1.5220   -3.6510   -1.1500 Ca        1 MOL      1.783440
    170 O24         3.1120   -4.5760    0.8750 oh        1 MOL     -0.859374
    171 H77         4.0530   -4.4190    0.8740 ho        1 MOL      0.416560
    172 H78         2.8830   -4.7090    1.7990 ho        1 MOL      0.416560
    173 O25         1.7800   -5.8840   -2.7750 oh        1 MOL     -0.859374
    174 H79         1.0660   -6.4060   -2.4140 ho        1 MOL      0.416560
    175 H80         2.2260   -6.4640   -3.3760 ho        1 MOL      0.416560
    176 O26         1.4060   -3.0230   -3.7800 oh        1 MOL     -0.859374
    177 H81         2.2880   -3.0950   -4.1400 ho        1 MOL      0.416560
    178 H82         0.8250   -3.3100   -4.4900 ho        1 MOL      0.416560
@<TRIPOS>BOND
     1    1    2 1   
     2    1    4 1   
     3    1    5 1   
     4    1    6 1   
     5    2    3 2   
     6    2    7 1   
     7    7    8 1   
     8    7   15 1   
     9    8    9 1   
    10    8   11 1   
    11    8   16 1   
    12    9   10 2   
    13    9   19 1   
    14   11   12 1   
    15   11   17 1   
    16   11   18 1   
    17   12   13 1   
    18   12   14 1   
    19   19   20 1   
    20   19   24 1   
    21   20   21 1   
    22   20   23 1   
    23   20   25 1   
    24   21   22 2   
    25   21   29 1   
    26   23   26 1   
    27   23   27 1   
    28   23   28 1   
    29   29   30 1   
    30   29   37 1   
    31   30   31 1   
    32   30   33 1   
    33   30   38 1   
    34   31   32 2   
    35   31   41 1   
    36   33   34 1   
    37   33   39 1   
    38   33   40 1   
    39   34   35 1   
    40   34   36 1   
    41   41   42 1   
    42   41   45 1   
    43   42   43 1   
    44   42   46 1   
    45   42   47 1   
    46   43   44 2   
    47   43   48 1   
    48   48   49 1   
    49   48   56 1   
    50   49   50 1   
    51   49   52 1   
    52   49   57 1   
    53   50   51 2   
    54   50   62 1   
    55   52   53 1   
    56   52   58 1   
    57   52   59 1   
    58   53   54 1   
    59   53   55 2   
    60   54   60 1   
    61   54   61 1   
    62   62   63 1   
    63   62   66 1   
    64   63   64 1   
    65   63   67 1   
    66   63   68 1   
    67   64   65 2   
    68   64   69 1   
    69   69   70 1   
    70   69   76 1   
    71   70   71 1   
    72   70   73 1   
    73   70   77 1   
    74   71   72 2   
    75   71   83 1   
    76   73   74 1   
    77   73   75 1   
    78   73   78 1   
    79   74   80 1   
    80   74   81 1   
    81   74   82 1   
    82   75   79 1   
    83   83   84 1   
    84   83   91 1   
    85   84   85 1   
    86   84   87 1   
    87   84   92 1   
    88   85   86 2   
    89   85  102 1   
    90   87   88 1   
    91   87   89 1   
    92   87   93 1   
    93   88   90 1   
    94   88   94 1   
    95   88   95 1   
    96   89   96 1   
    97   89   97 1   
    98   89   98 1   
    99   90   99 1   
   100   90  100 1   
   101   90  101 1   
   102  102  103 1   
   103  102  110 1   
   104  103  104 1   
   105  103  106 1   
   106  103  111 1   
   107  104  105 2   
   108  104  114 1   
   109  106  107 1   
   110  106  112 1   
   111  106  113 1   
   112  107  108 1   
   113  107  109 1   
   114  114  115 1   
   115  114  125 1   
   116  115  116 1   
   117  115  118 1   
   118  115  126 1   
   119  116  117 2   
   120  116  134 1   
   121  118  119 1   
   122  118  127 1   
   123  118  128 1   
   124  119  120 ar  
   125  119  121 ar  
   126  120  122 ar  
   127  120  129 1   
   128  121  123 ar  
   129  121  130 1   
   130  122  124 ar  
   131  122  131 1   
   132  123  124 ar  
   133  123  132 1   
   134  124  133 1   
   135  134  135 1   
   136  134  140 1   
   137  135  136 1   
   138  135  138 1   
   139  135  141 1   
   140  136  137 2   
   141  136  148 1   
   142  138  139 1   
   143  138  142 1   
   144  138  143 1   
   145  139  140 1   
   146  139  144 1   
   147  139  145 1   
   148  140  146 1   
   149  140  147 1   
   150  148  149 1   
   151  148  157 1   
   152  149  150 1   
   153  149  152 1   
   154  149  158 1   
   155  150  151 2   
   156  150  163 1   
   157  152  153 1   
   158  152  159 1   
   159  152  160 1   
   160  153  154 1   
   161  153  161 1   
   162  153  162 1   
   163  154  155 1   
   164  154  156 1   
   165  163  164 1   
   166  163  168 1   
   167  164  165 1   
   168  164  166 1   
   169  164  167 1   
   170  170  171 1   
   171  170  172 1   
   172  173  174 1   
   173  173  175 1   
   174  176  177 1   
   175  176  178 1   
@<TRIPOS>SUBSTRUCTURE
     1 MOL         1 TEMP              0 ****  ****    0 ROOT
