@<TRIPOS>MOLECULE
MOL
  185   180     1     0     0
SMALL
resp


@<TRIPOS>ATOM
      1 C1          6.9620    1.1200    5.1420 c3        1 MOL     -0.316998
      2 C2          7.0900    0.9470    3.6110 c         1 MOL      0.650306
      3 O1          6.1020    0.5760    3.0380 o         1 MOL     -0.531584
      4 H1          6.2890    0.3600    5.5380 hc        1 MOL      0.083863
      5 H2          7.9440    1.0110    5.6040 hc        1 MOL      0.083863
      6 H3          6.5630    2.1100    5.3640 hc        1 MOL      0.083863
      7 N1          8.1860    1.4130    3.0160 n         1 MOL     -0.703113
      8 C3          8.3420    1.6880    1.5860 c3        1 MOL     -0.073742
      9 C4          8.2690    0.4590    0.5990 c         1 MOL      0.557361
     10 O2          8.6790    0.6060   -0.5310 o         1 MOL     -0.578234
     11 C5          7.3250    2.7670    1.1910 c3        1 MOL     -0.045119
     12 C6          7.1870    4.0000    2.1000 c         1 MOL      0.813901
     13 O3          6.2160    4.1480    2.8430 o         1 MOL     -0.720746
     14 O4          8.1090    4.7800    2.0160 o         1 MOL     -0.720746
     15 H4          8.8850    1.8520    3.5910 hn        1 MOL      0.396257
     16 H5          9.2920    2.1960    1.4280 h1        1 MOL      0.088103
     17 H6          6.3770    2.2490    1.0430 hc        1 MOL      0.029762
     18 H7          7.5560    3.1210    0.1850 hc        1 MOL      0.029762
     19 N2          7.7300   -0.6730    1.0000 n         1 MOL     -0.294016
     20 C7          7.5400   -1.8780    0.1550 c3        1 MOL      0.036314
     21 C8          6.1090   -2.3530    0.1650 c         1 MOL      0.557081
     22 O5          5.6230   -2.8530    1.1630 o         1 MOL     -0.543957
     23 C9          8.4480   -3.0510    0.4980 c3        1 MOL     -0.162898
     24 C10         9.9620   -2.8370    0.5870 c3        1 MOL      0.225761
     25 C11        10.5100   -2.3600   -0.7620 c3        1 MOL     -0.128211
     26 C12        11.9200   -2.7870   -0.9640 c3        1 MOL      0.031659
     27 N3         12.8600   -2.0220   -0.1250 n4        1 MOL     -0.279943
     28 H8          7.3020   -0.6760    1.9080 hn        1 MOL      0.238728
     29 H9          7.8360   -1.6760   -0.8770 h1        1 MOL      0.029945
     30 H10         8.2230   -3.9230   -0.1130 hc        1 MOL      0.057611
     31 H11         8.0380   -3.3410    1.4660 hc        1 MOL      0.057611
     32 H12        10.3820   -3.7760    0.9540 hc        1 MOL     -0.067452
     33 H13        10.1000   -2.0610    1.3480 hc        1 MOL     -0.067452
     34 H14        10.3440   -1.2880   -0.7860 hc        1 MOL      0.071420
     35 H15         9.8880   -2.8780   -1.4970 hc        1 MOL      0.071420
     36 H16        12.2750   -2.6230   -1.9770 hx        1 MOL      0.084249
     37 H17        12.1140   -3.8520   -0.8490 hx        1 MOL      0.084249
     38 H18        12.4810   -1.1280    0.1400 hn        1 MOL      0.282547
     39 H19        12.9180   -2.4190    0.8170 hn        1 MOL      0.282547
     40 H20        13.7650   -1.8680   -0.5230 hn        1 MOL      0.282547
     41 N4          5.3450   -2.0780   -0.8580 n         1 MOL     -0.533896
     42 C13         3.8850   -2.4380   -0.9090 c3        1 MOL     -0.002295
     43 C14         3.5720   -3.0990   -2.2730 c         1 MOL      0.439425
     44 O6          3.9910   -2.6380   -3.3470 o         1 MOL     -0.510204
     45 C15         3.2220   -1.0620   -0.7510 c3        1 MOL     -0.046572
     46 C16         1.7740   -1.2000   -0.4140 c         1 MOL      0.825824
     47 O7          1.1730   -2.2710   -0.4680 o         1 MOL     -0.782044
     48 O8          1.0890   -0.2150   -0.0890 o         1 MOL     -0.782044
     49 H21         5.7440   -1.7040   -1.6950 hn        1 MOL      0.300431
     50 H22         3.6620   -3.0880   -0.0620 h1        1 MOL      0.104439
     51 H23         3.3550   -0.4620   -1.6460 hc        1 MOL      0.088911
     52 H24         3.6730   -0.5400    0.0950 hc        1 MOL      0.088911
     53 N5          2.7050   -4.1150   -2.2900 n         1 MOL     -0.259346
     54 C17         2.2440   -4.7960   -3.4720 c3        1 MOL     -0.248842
     55 C18         1.0320   -4.0420   -4.1150 c         1 MOL      0.576330
     56 O9          0.6280   -4.4210   -5.2310 o         1 MOL     -0.569505
     57 H25         2.5030   -4.4870   -1.3750 hn        1 MOL      0.272530
     58 H26         1.8950   -5.7990   -3.2430 h1        1 MOL      0.137381
     59 H27         3.0480   -4.8140   -4.2050 h1        1 MOL      0.137381
     60 N6          0.4190   -3.0330   -3.4630 n         1 MOL     -0.314835
     61 C19        -0.6730   -2.1570   -4.0120 c3        1 MOL      0.032662
     62 C20        -0.3080   -0.6410   -4.0990 c         1 MOL      0.354705
     63 O10        -1.0630    0.1560   -4.6400 o         1 MOL     -0.475230
     64 C21        -1.9710   -2.4630   -3.3710 c3        1 MOL     -0.300221
     65 C22        -2.2140   -1.5570   -2.1400 c         1 MOL      0.570002
     66 N7         -3.1230   -0.6150   -2.2280 n         1 MOL     -0.619133
     67 O11        -1.5740   -1.7120   -1.1180 o         1 MOL     -0.542181
     68 H28         0.6520   -2.9120   -2.4820 hn        1 MOL      0.304549
     69 H29        -0.8520   -2.3600   -5.0650 h1        1 MOL      0.130563
     70 H30        -2.0900   -3.5290   -3.1620 hc        1 MOL      0.115258
     71 H31        -2.7440   -2.1000   -4.0510 hc        1 MOL      0.115258
     72 H32        -3.7530   -0.5340   -3.0100 hn        1 MOL      0.321719
     73 H33        -3.2110    0.0120   -1.4440 hn        1 MOL      0.321719
     74 N8          0.8850   -0.2380   -3.5680 n         1 MOL     -0.097081
     75 C23         1.4290    1.0720   -3.7780 c3        1 MOL     -0.119181
     76 C24         0.8100    2.2930   -3.0870 c         1 MOL      0.437809
     77 O12         0.4410    3.3450   -3.6500 o         1 MOL     -0.545118
     78 H34         1.4880   -0.9980   -3.2830 hn        1 MOL      0.083379
     79 H35         1.6010    1.2720   -4.8400 h1        1 MOL      0.090466
     80 H36         2.4500    1.1120   -3.3970 h1        1 MOL      0.090466
     81 N9          0.6310    2.0500   -1.7730 n         1 MOL     -0.081110
     82 C25        -0.1550    2.9840   -0.9390 c3        1 MOL      0.060877
     83 C26        -1.3400    2.2800   -0.3130 c         1 MOL      0.307708
     84 O13        -1.4210    1.0350   -0.0420 o         1 MOL     -0.301078
     85 C27         0.8250    3.5230    0.2570 c3        1 MOL     -0.243662
     86 C28         2.1560    4.0580   -0.2360 ca        1 MOL      0.007926
     87 C29         3.1590    3.1060   -0.5270 ca        1 MOL     -0.026826
     88 C30         2.5530    5.4310   -0.2840 ca        1 MOL     -0.026826
     89 C31         4.4610    3.4350   -0.7600 ca        1 MOL     -0.384506
     90 C32         3.8540    5.7780   -0.5980 ca        1 MOL     -0.384506
     91 C33         4.8470    4.7760   -0.8600 ca        1 MOL      0.447963
     92 O14         6.1240    5.1530   -1.0860 oh        1 MOL     -0.490816
     93 H37         1.0000    1.2360   -1.3070 hn        1 MOL     -0.046650
     94 H38        -0.5530    3.8650   -1.4380 h1        1 MOL      0.085491
     95 H39         1.0380    2.8350    1.0870 hc        1 MOL      0.113139
     96 H40         0.3430    4.3250    0.8110 hc        1 MOL      0.113139
     97 H41         2.8150    2.0790   -0.5150 ha        1 MOL      0.078705
     98 H42         1.7750    6.1760   -0.2050 ha        1 MOL      0.078705
     99 H43         5.1280    2.6290   -0.9990 ha        1 MOL      0.168981
    100 H44         4.1370    6.8030   -0.4440 ha        1 MOL      0.168981
    101 H45         6.0920    6.1090   -1.1120 ho        1 MOL      0.378871
    102 N10        -2.3110    3.0850    0.2120 n         1 MOL     -0.491210
    103 C34        -3.6130    2.6630    0.8100 c3        1 MOL      0.003750
    104 C35        -4.5360    2.1320   -0.2560 c         1 MOL      0.219523
    105 O15        -4.9530    0.9520   -0.2120 o         1 MOL     -0.360688
    106 C36        -4.3260    3.7720    1.6470 c3        1 MOL      0.140068
    107 C37        -3.4760    4.2610    2.8100 c3        1 MOL      0.090507
    108 C38        -5.7170    3.2800    2.1730 c3        1 MOL     -0.293401
    109 C39        -2.9590    3.1450    3.8210 c3        1 MOL     -0.471423
    110 H46        -2.1340    4.0660    0.0500 hn        1 MOL      0.326261
    111 H47        -3.4160    1.9110    1.5680 h1        1 MOL      0.040931
    112 H48        -4.4810    4.6760    1.0640 hc        1 MOL     -0.023609
    113 H49        -4.1100    4.8820    3.4340 hc        1 MOL     -0.012341
    114 H50        -2.6420    4.8330    2.4040 hc        1 MOL     -0.012341
    115 H51        -6.1910    4.0580    2.7770 hc        1 MOL      0.092375
    116 H52        -6.3000    3.1560    1.2570 hc        1 MOL      0.092375
    117 H53        -5.7210    2.3280    2.6930 hc        1 MOL      0.092375
    118 H54        -2.2180    3.4310    4.5660 hc        1 MOL      0.155084
    119 H55        -3.8680    2.7180    4.2450 hc        1 MOL      0.155084
    120 H56        -2.3740    2.3400    3.3440 hc        1 MOL      0.155084
    121 N11        -4.8190    2.9220   -1.3090 n         1 MOL     -0.088327
    122 C40        -5.6520    2.5210   -2.4630 c3        1 MOL     -0.139756
    123 C41        -7.0270    2.0410   -2.0930 c         1 MOL      0.587521
    124 O16        -7.5560    1.1540   -2.7980 o         1 MOL     -0.527781
    125 C42        -5.8270    3.7890   -3.3480 c3        1 MOL     -0.055491
    126 O17        -6.3460    4.9390   -2.6510 oh        1 MOL     -0.624453
    127 H57        -4.3400    3.8160   -1.3390 hn        1 MOL      0.229033
    128 H58        -5.1150    1.7550   -3.0030 h1        1 MOL      0.107415
    129 H59        -6.4720    3.5410   -4.1910 h1        1 MOL      0.112506
    130 H60        -4.8250    4.0940   -3.6720 h1        1 MOL      0.112506
    131 H61        -6.1130    5.6700   -3.2290 ho        1 MOL      0.435105
    132 N12        -7.6490    2.6150   -1.0790 n         1 MOL     -0.265743
    133 C43        -8.8470    2.0390   -0.4230 c3        1 MOL      0.184276
    134 C44        -8.8590    0.4890   -0.2400 c         1 MOL      0.380641
    135 O18        -9.9450   -0.1370   -0.1430 o         1 MOL     -0.516348
    136 C45       -10.0830    2.5410   -1.1530 c3        1 MOL     -0.294360
    137 H62        -7.1970    3.4230   -0.6580 hn        1 MOL      0.218084
    138 H63        -8.8740    2.4800    0.5730 h1        1 MOL      0.037027
    139 H64       -10.2130    3.6170   -1.1070 hc        1 MOL      0.086897
    140 H65        -9.9780    2.3420   -2.2230 hc        1 MOL      0.086897
    141 H66       -10.9990    2.0730   -0.7770 hc        1 MOL      0.086897
    142 N13        -7.6850   -0.1480   -0.2570 n         1 MOL     -0.272500
    143 C46        -7.3820   -1.6250   -0.1940 c3        1 MOL      0.444352
    144 C47        -6.7720   -2.0950    1.1710 c         1 MOL      0.238003
    145 O19        -6.2470   -1.2740    1.9540 o         1 MOL     -0.452932
    146 C48        -6.4600   -2.2020   -1.3640 c3        1 MOL     -0.279667
    147 H67        -6.9320    0.5190   -0.3480 hn        1 MOL     -0.004616
    148 H68        -8.3700   -2.0470   -0.3420 h1        1 MOL     -0.004435
    149 H69        -6.8250   -1.9530   -2.3610 hc        1 MOL      0.070380
    150 H70        -5.4300   -1.8650   -1.2530 hc        1 MOL      0.070380
    151 H71        -6.3980   -3.2790   -1.2320 hc        1 MOL      0.070380
    152 N14        -6.7590   -3.3760    1.4240 n         1 MOL     -0.515763
    153 C49        -6.0630   -4.0240    2.6220 c3        1 MOL      0.146904
    154 C50        -6.6250   -3.5110    4.0270 c         1 MOL      0.341934
    155 O20        -5.9680   -3.7140    5.0550 o         1 MOL     -0.478020
    156 C51        -4.5290   -3.8190    2.4880 c3        1 MOL     -0.255907
    157 C52        -3.9820   -4.0680    1.0520 c3        1 MOL      0.256357
    158 C53        -2.5170   -4.2960    1.0500 c         1 MOL      0.509289
    159 O21        -2.1170   -5.3750    0.6050 o         1 MOL     -0.660574
    160 O22        -1.6840   -3.4260    1.4440 o         1 MOL     -0.660574
    161 H72        -7.3030   -3.9170    0.7650 hn        1 MOL      0.303288
    162 H73        -6.2500   -5.1020    2.6380 h1        1 MOL      0.080071
    163 H74        -4.0340   -4.5570    3.1060 hc        1 MOL      0.077156
    164 H75        -4.2370   -2.8070    2.7630 hc        1 MOL      0.077156
    165 H76        -4.2270   -3.2150    0.4210 hc        1 MOL     -0.047123
    166 H77        -4.4770   -4.9220    0.6090 hc        1 MOL     -0.047123
    167 N15        -7.8290   -2.8530    4.0390 n         1 MOL     -0.226269
    168 C54        -8.4700   -2.1040    5.1300 c3        1 MOL     -0.079625
    169 H78        -9.2250   -2.7290    5.6050 h1        1 MOL      0.068003
    170 H79        -7.7180   -1.8190    5.8660 h1        1 MOL      0.068003
    171 H80        -8.9420   -1.2080    4.7270 h1        1 MOL      0.068003
    172 H81        -8.4090   -2.9210    3.2210 hn        1 MOL      0.223993
    173 Ca1        -0.8530   -1.1010    1.3380 Ca        1 MOL      1.725961
    174 O23         0.5390    0.7770    2.8070 oh        1 MOL     -0.905335
    175 H82         0.6010    1.1080    3.7060 ho        1 MOL      0.440311
    176 H83         1.4120    0.9160    2.4380 ho        1 MOL      0.440311
    177 O24        -1.7590   -0.9080    3.9830 oh        1 MOL     -0.905335
    178 H84        -2.1200   -1.7160    4.3440 ho        1 MOL      0.440311
    179 H85        -1.1380   -0.6090    4.6370 ho        1 MOL      0.440311
    180 O25         1.2490   -2.1160    2.7610 oh        1 MOL     -0.905335
    181 H86         1.3450   -3.0260    3.0530 ho        1 MOL      0.440311
    182 H87         2.0240   -1.6720    3.0920 ho        1 MOL      0.440311
    183 O26        -3.4730   -0.7690    1.4530 oh        1 MOL     -0.905335
    184 H88        -4.2010   -0.7020    0.8460 ho        1 MOL      0.440311
    185 H89        -3.8680   -0.6050    2.3180 ho        1 MOL      0.440311
@<TRIPOS>BOND
     1    1    2 1   
     2    1    4 1   
     3    1    5 1   
     4    1    6 1   
     5    2    3 2   
     6    2    7 1   
     7    7    8 1   
     8    7   15 1   
     9    8    9 1   
    10    8   11 1   
    11    8   16 1   
    12    9   10 2   
    13    9   19 1   
    14   11   12 1   
    15   11   17 1   
    16   11   18 1   
    17   12   13 1   
    18   12   14 1   
    19   19   20 1   
    20   19   28 1   
    21   20   21 1   
    22   20   23 1   
    23   20   29 1   
    24   21   22 2   
    25   21   41 1   
    26   23   24 1   
    27   23   30 1   
    28   23   31 1   
    29   24   25 1   
    30   24   32 1   
    31   24   33 1   
    32   25   26 1   
    33   25   34 1   
    34   25   35 1   
    35   26   27 1   
    36   26   36 1   
    37   26   37 1   
    38   27   38 1   
    39   27   39 1   
    40   27   40 1   
    41   41   42 1   
    42   41   49 1   
    43   42   43 1   
    44   42   45 1   
    45   42   50 1   
    46   43   44 2   
    47   43   53 1   
    48   45   46 1   
    49   45   51 1   
    50   45   52 1   
    51   46   47 1   
    52   46   48 1   
    53   53   54 1   
    54   53   57 1   
    55   54   55 1   
    56   54   58 1   
    57   54   59 1   
    58   55   56 2   
    59   55   60 1   
    60   60   61 1   
    61   60   68 1   
    62   61   62 1   
    63   61   64 1   
    64   61   69 1   
    65   62   63 2   
    66   62   74 1   
    67   64   65 1   
    68   64   70 1   
    69   64   71 1   
    70   65   66 1   
    71   65   67 2   
    72   66   72 1   
    73   66   73 1   
    74   74   75 1   
    75   74   78 1   
    76   75   76 1   
    77   75   79 1   
    78   75   80 1   
    79   76   77 2   
    80   76   81 1   
    81   81   82 1   
    82   81   93 1   
    83   82   83 1   
    84   82   85 1   
    85   82   94 1   
    86   83   84 2   
    87   83  102 1   
    88   85   86 1   
    89   85   95 1   
    90   85   96 1   
    91   86   87 ar  
    92   86   88 ar  
    93   87   89 ar  
    94   87   97 1   
    95   88   90 ar  
    96   88   98 1   
    97   89   91 ar  
    98   89   99 1   
    99   90   91 ar  
   100   90  100 1   
   101   91   92 1   
   102   92  101 1   
   103  102  103 1   
   104  102  110 1   
   105  103  104 1   
   106  103  106 1   
   107  103  111 1   
   108  104  105 2   
   109  104  121 1   
   110  106  107 1   
   111  106  108 1   
   112  106  112 1   
   113  107  109 1   
   114  107  113 1   
   115  107  114 1   
   116  108  115 1   
   117  108  116 1   
   118  108  117 1   
   119  109  118 1   
   120  109  119 1   
   121  109  120 1   
   122  121  122 1   
   123  121  127 1   
   124  122  123 1   
   125  122  125 1   
   126  122  128 1   
   127  123  124 2   
   128  123  132 1   
   129  125  126 1   
   130  125  129 1   
   131  125  130 1   
   132  126  131 1   
   133  132  133 1   
   134  132  137 1   
   135  133  134 1   
   136  133  136 1   
   137  133  138 1   
   138  134  135 2   
   139  134  142 1   
   140  136  139 1   
   141  136  140 1   
   142  136  141 1   
   143  142  143 1   
   144  142  147 1   
   145  143  144 1   
   146  143  146 1   
   147  143  148 1   
   148  144  145 2   
   149  144  152 1   
   150  146  149 1   
   151  146  150 1   
   152  146  151 1   
   153  152  153 1   
   154  152  161 1   
   155  153  154 1   
   156  153  156 1   
   157  153  162 1   
   158  154  155 2   
   159  154  167 1   
   160  156  157 1   
   161  156  163 1   
   162  156  164 1   
   163  157  158 1   
   164  157  165 1   
   165  157  166 1   
   166  158  159 1   
   167  158  160 1   
   168  167  168 1   
   169  167  172 1   
   170  168  169 1   
   171  168  170 1   
   172  168  171 1   
   173  174  175 1   
   174  174  176 1   
   175  177  178 1   
   176  177  179 1   
   177  180  181 1   
   178  180  182 1   
   179  183  184 1   
   180  183  185 1   
@<TRIPOS>SUBSTRUCTURE
     1 MOL         1 TEMP              0 ****  ****    0 ROOT
