@<TRIPOS>MOLECULE
MOL
  189   185     1     0     0
SMALL
resp


@<TRIPOS>ATOM
      1 C1          4.3970    4.9270   -2.8540 c3        1 MOL     -0.423466
      2 C2          5.0290    3.9710   -1.8390 c         1 MOL      0.751145
      3 O1          4.4910    3.5630   -0.7960 o         1 MOL     -0.617641
      4 H1          3.7500    4.3650   -3.5280 hc        1 MOL      0.109945
      5 H2          3.8080    5.6790   -2.3280 hc        1 MOL      0.109945
      6 H3          5.1830    5.4180   -3.4290 hc        1 MOL      0.109945
      7 N1          6.2320    3.5580   -2.1550 n         1 MOL     -0.637190
      8 C3          6.9260    2.3440   -1.5670 c3        1 MOL      0.329455
      9 C4          6.0720    1.0810   -1.5970 c         1 MOL      0.350854
     10 O2          5.6810    0.6210   -0.5400 o         1 MOL     -0.673457
     11 C5          7.7670    2.4920   -0.2950 c3        1 MOL     -0.239673
     12 C6          7.1310    3.3930    0.7240 c         1 MOL      0.800460
     13 O3          6.2920    2.9010    1.5190 o         1 MOL     -0.727200
     14 O4          7.5850    4.5300    0.8450 o         1 MOL     -0.727200
     15 H4          6.6170    3.9200   -3.0100 hn        1 MOL      0.306438
     16 H5          7.6640    2.0730   -2.3140 h1        1 MOL     -0.004711
     17 H6          8.7220    2.9300   -0.5950 hc        1 MOL      0.040733
     18 H7          8.0320    1.4890    0.0570 hc        1 MOL      0.040733
     19 N2          5.7150    0.5840   -2.8230 n         1 MOL     -0.495391
     20 C7          5.1660   -0.7300   -3.0550 c3        1 MOL      0.204075
     21 C8          6.0010   -1.9230   -2.5310 c         1 MOL      0.266575
     22 O5          6.4110   -2.8010   -3.3520 o         1 MOL     -0.572111
     23 C9          3.7020   -0.8880   -2.4560 c3        1 MOL      0.200618
     24 C10         3.1220   -2.1910   -2.9660 c3        1 MOL     -0.031660
     25 C11         2.7880    0.4050   -2.7890 c3        1 MOL     -0.644113
     26 C12         3.0370   -2.3440   -4.5130 c3        1 MOL     -0.015752
     27 H8          5.9420    1.1250   -3.6460 hn        1 MOL      0.284543
     28 H9          5.1720   -0.7050   -4.1380 h1        1 MOL      0.026089
     29 H10         3.6300   -1.0280   -1.3710 hc        1 MOL     -0.027388
     30 H11         2.1010   -2.3790   -2.6430 hc        1 MOL      0.030212
     31 H12         3.7980   -2.9270   -2.5400 hc        1 MOL      0.030212
     32 H13         1.7310    0.1660   -2.6720 hc        1 MOL      0.160192
     33 H14         3.1000    1.2220   -2.1400 hc        1 MOL      0.160192
     34 H15         2.8920    0.6780   -3.8330 hc        1 MOL      0.160192
     35 H16         3.9410   -2.6910   -5.0040 hc        1 MOL     -0.014402
     36 H17         2.3740   -3.1430   -4.8330 hc        1 MOL     -0.014402
     37 H18         2.6620   -1.4250   -4.9670 hc        1 MOL     -0.014402
     38 N3          6.3810   -2.0000   -1.2750 n         1 MOL      0.007412
     39 C13         7.4220   -2.7740   -0.6480 c3        1 MOL     -0.056577
     40 C14         7.0000   -4.3080   -0.4160 c         1 MOL      0.635301
     41 O6          7.7840   -5.2460   -0.6100 o         1 MOL     -0.560052
     42 C15         7.8580   -2.0490    0.6900 c3        1 MOL     -0.266083
     43 C16         9.0180   -2.7160    1.3710 c         1 MOL      0.692552
     44 O7          8.9360   -3.1000    2.6090 o         1 MOL     -0.681405
     45 O8         10.0620   -3.0010    0.7390 o         1 MOL     -0.681405
     46 H19         5.9960   -1.2470   -0.7300 hn        1 MOL      0.287865
     47 H20         8.3040   -2.8030   -1.2860 h1        1 MOL      0.053929
     48 H21         6.9960   -1.9480    1.3580 hc        1 MOL      0.086595
     49 H22         8.1060   -1.0010    0.5000 hc        1 MOL      0.086595
     50 N4          5.7210   -4.6070   -0.1180 n         1 MOL     -0.607382
     51 C17         4.6040   -3.7500    0.3430 c3        1 MOL      0.141145
     52 C18         3.4250   -4.6200    0.8570 c         1 MOL      0.625754
     53 O9          3.2900   -5.7170    0.4450 o         1 MOL     -0.604198
     54 H23         5.5030   -5.5880   -0.0180 hn        1 MOL      0.295183
     55 H24         4.1790   -3.0610   -0.3830 h1        1 MOL      0.045686
     56 H25         5.0620   -3.2560    1.1910 h1        1 MOL      0.045686
     57 N5          2.5530   -4.2020    1.7150 n         1 MOL     -0.554429
     58 C19         2.3750   -2.8490    2.3580 c3        1 MOL      0.218754
     59 C20         2.3820   -1.5950    1.5010 c         1 MOL      0.138153
     60 O10         3.4190   -0.9170    1.3220 o         1 MOL     -0.521284
     61 C21         3.4290   -2.7790    3.4740 c3        1 MOL     -0.272555
     62 C22         3.4990   -1.5210    4.4300 c         1 MOL      0.755769
     63 O11         2.4320   -0.8950    4.5080 o         1 MOL     -0.697389
     64 O12         4.5580   -1.1290    4.9290 o         1 MOL     -0.697389
     65 H26         1.9450   -4.9660    1.9920 hn        1 MOL      0.297321
     66 H27         1.4150   -2.8570    2.8790 h1        1 MOL      0.066321
     67 H28         4.3940   -3.0250    3.0270 hc        1 MOL      0.051905
     68 H29         3.1950   -3.5970    4.1630 hc        1 MOL      0.051905
     69 N6          1.2540   -1.1510    1.0200 n         1 MOL      0.002464
     70 C23        -0.1620   -1.6140    1.2010 c3        1 MOL     -0.009584
     71 C24        -0.6550   -2.4120    0.0600 c         1 MOL      0.554462
     72 O13         0.0570   -2.5550   -0.9870 o         1 MOL     -0.507437
     73 H30         1.3180   -0.3360    0.4250 hn        1 MOL      0.156713
     74 H31        -0.7950   -0.7400    1.3020 h1        1 MOL      0.026982
     75 H32        -0.3650   -2.1560    2.1210 h1        1 MOL      0.026982
     76 N7         -1.8950   -2.9730    0.2290 n         1 MOL     -0.445515
     77 C25        -2.4160   -3.9730   -0.5850 c3        1 MOL     -0.047943
     78 C26        -2.9040   -3.5380   -1.9720 c         1 MOL      0.409149
     79 O14        -2.9630   -4.3530   -2.9370 o         1 MOL     -0.520264
     80 C27        -3.4050   -4.9650    0.1480 c3        1 MOL      0.060653
     81 C28        -4.7660   -4.3330    0.6640 c3        1 MOL     -0.297396
     82 C29        -5.6770   -5.2820    1.3000 c         1 MOL      0.771881
     83 N8         -6.5500   -5.9000    0.5610 n         1 MOL     -0.799018
     84 O15        -5.5160   -5.7070    2.4520 o         1 MOL     -0.608475
     85 H33        -2.4290   -2.8890    1.0770 hn        1 MOL      0.294814
     86 H34        -1.5870   -4.6660   -0.7100 h1        1 MOL      0.113961
     87 H35        -2.8720   -5.3220    1.0310 hc        1 MOL      0.029068
     88 H36        -3.5580   -5.8700   -0.4450 hc        1 MOL      0.029068
     89 H37        -5.2500   -3.8550   -0.1840 hc        1 MOL      0.089943
     90 H38        -4.4850   -3.5940    1.4050 hc        1 MOL      0.089943
     91 H39        -6.5870   -5.7610   -0.4410 hn        1 MOL      0.355477
     92 H40        -7.1350   -6.6520    0.8700 hn        1 MOL      0.355477
     93 N9         -3.2760   -2.2380   -2.1930 n         1 MOL     -0.191775
     94 C30        -3.7930   -1.7020   -3.4280 c3        1 MOL     -0.055727
     95 C31        -5.1520   -1.0170   -3.4090 c         1 MOL      0.444101
     96 O16        -5.7990   -0.7700   -4.4540 o         1 MOL     -0.551882
     97 C32        -2.8410   -0.6430   -4.0470 c3        1 MOL      0.192698
     98 C33        -1.5250   -1.3200   -4.3710 c3        1 MOL     -0.303602
     99 C34        -2.3850    0.4890   -3.1030 c3        1 MOL     -0.303602
    100 H41        -3.1970   -1.6080   -1.4110 hn        1 MOL      0.196744
    101 H42        -3.8520   -2.4730   -4.1950 h1        1 MOL      0.104915
    102 H43        -3.2930   -0.2980   -4.9680 hc        1 MOL      0.013488
    103 H44        -0.7520   -0.5600   -4.4830 hc        1 MOL      0.076420
    104 H45        -1.2280   -2.0340   -3.6070 hc        1 MOL      0.076420
    105 H46        -1.5790   -1.7840   -5.3580 hc        1 MOL      0.076420
    106 H47        -3.2760    1.0100   -2.7590 hc        1 MOL      0.076420
    107 H48        -1.8930    0.2010   -2.1790 hc        1 MOL      0.076420
    108 H49        -1.6880    1.1810   -3.5860 hc        1 MOL      0.076420
    109 N10        -5.6690   -0.7880   -2.1730 n         1 MOL     -0.305405
    110 C35        -7.0880   -0.2680   -2.0530 c3        1 MOL      0.095117
    111 C36        -7.1490    0.9870   -1.1350 c         1 MOL      0.421558
    112 O17        -7.9870    1.8950   -1.3240 o         1 MOL     -0.536437
    113 C37        -7.9810   -1.4240   -1.5330 c3        1 MOL     -0.499272
    114 C38        -7.8790   -2.8590   -2.1520 c         1 MOL      0.623580
    115 N11        -7.8440   -3.0330   -3.4420 n         1 MOL     -0.667655
    116 O18        -7.6400   -3.7830   -1.4130 o         1 MOL     -0.558727
    117 H50        -5.1250   -1.1070   -1.3930 hn        1 MOL      0.204870
    118 H51        -7.5390    0.0970   -2.9770 h1        1 MOL      0.110402
    119 H52        -9.0040   -1.0540   -1.6300 hc        1 MOL      0.166788
    120 H53        -7.8020   -1.4760   -0.4630 hc        1 MOL      0.166788
    121 H54        -8.0540   -2.2340   -4.0210 hn        1 MOL      0.339227
    122 H55        -8.0260   -3.9490   -3.8090 hn        1 MOL      0.339227
    123 N12        -6.1240    1.1780   -0.2960 n         1 MOL     -0.283080
    124 C39        -5.9490    2.1590    0.7840 c3        1 MOL      0.037966
    125 C40        -4.5840    2.8030    0.8190 c         1 MOL      0.538983
    126 O19        -3.6920    2.4130    0.0370 o         1 MOL     -0.523392
    127 C41        -6.1000    1.3780    2.1220 c3        1 MOL     -0.017772
    128 C42        -7.4990    0.7790    2.2770 ca        1 MOL     -0.007428
    129 C43        -8.6010    1.5900    2.7050 ca        1 MOL     -0.075642
    130 C44        -7.5890   -0.6210    2.1630 ca        1 MOL     -0.075642
    131 C45        -9.7490    0.8730    3.1620 ca        1 MOL     -0.373213
    132 C46        -8.8010   -1.2440    2.4330 ca        1 MOL     -0.373213
    133 C47        -9.8550   -0.5150    2.9670 ca        1 MOL      0.444454
    134 O20       -11.0480   -1.1460    3.2630 oh        1 MOL     -0.540220
    135 H56        -5.3950    0.4970   -0.4070 hn        1 MOL      0.228657
    136 H57        -6.6680    2.9840    0.7500 h1        1 MOL      0.060102
    137 H58        -5.9830    1.9880    3.0200 hc        1 MOL      0.041309
    138 H59        -5.4070    0.5400    2.2090 hc        1 MOL      0.041309
    139 H60        -8.5810    2.6580    2.8620 ha        1 MOL      0.094180
    140 H61        -6.7430   -1.1750    1.7630 ha        1 MOL      0.094180
    141 H62       -10.6790    1.3590    3.4370 ha        1 MOL      0.151383
    142 H63        -8.8140   -2.3250    2.4230 ha        1 MOL      0.151383
    143 H64       -11.8460   -0.6380    3.3920 ho        1 MOL      0.360697
    144 N13        -4.3460    3.8550    1.6890 n         1 MOL     -0.595702
    145 C48        -3.0540    4.4530    2.1390 c3        1 MOL      0.023714
    146 C49        -2.0630    5.0190    1.1430 c         1 MOL      0.446888
    147 O21        -1.2430    5.8530    1.5310 o         1 MOL     -0.514796
    148 C50        -2.4020    3.5370    3.1650 c3        1 MOL     -0.022594
    149 C51        -1.5680    2.3190    2.6990 c3        1 MOL     -0.196278
    150 C52        -1.1670    1.3220    3.8020 c         1 MOL      0.660050
    151 O22        -1.5770    0.1050    3.7140 o         1 MOL     -0.675807
    152 O23        -0.4290    1.7620    4.7350 o         1 MOL     -0.675807
    153 H65        -5.1290    4.0740    2.2970 hn        1 MOL      0.325735
    154 H66        -3.3680    5.3680    2.6450 h1        1 MOL      0.074856
    155 H67        -3.1450    3.1570    3.8630 hc        1 MOL      0.036995
    156 H68        -1.7320    4.1090    3.8010 hc        1 MOL      0.036995
    157 H69        -0.7480    2.7370    2.1190 hc        1 MOL      0.050994
    158 H70        -2.0880    1.7220    1.9570 hc        1 MOL      0.050994
    159 N14        -1.9830    4.5380   -0.0620 n         1 MOL     -0.389566
    160 C53        -1.0050    4.9790   -1.0210 c3        1 MOL     -0.123124
    161 C54        -1.4530    5.9750   -2.0750 c         1 MOL      0.559961
    162 O24        -0.7060    6.6870   -2.6960 o         1 MOL     -0.550969
    163 C55        -0.4290    3.8220   -1.8470 c3        1 MOL      0.041726
    164 C56        -0.1320    2.5160   -1.1390 c3        1 MOL      0.585137
    165 C57         1.0670    2.4610   -0.2040 c         1 MOL      0.494001
    166 O25         1.5360    3.4970    0.3590 o         1 MOL     -0.650173
    167 O26         1.6970    1.4090   -0.0980 o         1 MOL     -0.650173
    168 H71        -2.6050    3.8070   -0.3820 hn        1 MOL      0.312063
    169 H72        -0.1120    5.3180   -0.4890 h1        1 MOL      0.138969
    170 H73         0.5230    4.1790   -2.2450 hc        1 MOL     -0.047610
    171 H74        -1.1010    3.5630   -2.6590 hc        1 MOL     -0.047610
    172 H75        -0.0590    1.7250   -1.8880 hc        1 MOL     -0.186087
    173 H76        -1.0200    2.3290   -0.5330 hc        1 MOL     -0.186087
    174 N15        -2.7580    6.0100   -2.3940 n         1 MOL     -0.317470
    175 C58        -3.3770    6.9660   -3.4030 c3        1 MOL     -0.229881
    176 H77        -4.0290    6.4090   -4.0760 h1        1 MOL      0.102321
    177 H78        -3.9580    7.7240   -2.8780 h1        1 MOL      0.102321
    178 H79        -2.5880    7.4480   -3.9790 h1        1 MOL      0.102321
    179 H80        -3.4210    5.3900   -1.9610 hn        1 MOL      0.231393
    180 Ca1         3.8000    1.9450    1.2800 Ca        1 MOL      1.857097
    181 O27         3.7070    4.4440    2.4450 oh        1 MOL     -0.922255
    182 H81         2.7790    4.6860    2.4530 ho        1 MOL      0.434258
    183 H82         4.1750    5.2660    2.3860 ho        1 MOL      0.434258
    184 O28         1.8620    1.4500    3.1380 oh        1 MOL     -0.922255
    185 H83         1.0550    1.8050    3.5080 ho        1 MOL      0.434258
    186 H84         1.9140    0.5660    3.4830 ho        1 MOL      0.434258
    187 O29         4.8410    1.1050    3.5030 oh        1 MOL     -0.922255
    188 H85         4.7780    0.2650    3.9610 ho        1 MOL      0.434258
    189 H86         5.2470    1.6900    4.1380 ho        1 MOL      0.434258
@<TRIPOS>BOND
     1    1    2 1   
     2    1    4 1   
     3    1    5 1   
     4    1    6 1   
     5    2    3 2   
     6    2    7 1   
     7    7    8 1   
     8    7   15 1   
     9    8    9 1   
    10    8   11 1   
    11    8   16 1   
    12    9   10 2   
    13    9   19 1   
    14   11   12 1   
    15   11   17 1   
    16   11   18 1   
    17   12   13 1   
    18   12   14 1   
    19   19   20 1   
    20   19   27 1   
    21   20   21 1   
    22   20   23 1   
    23   20   28 1   
    24   21   22 2   
    25   21   38 1   
    26   23   24 1   
    27   23   25 1   
    28   23   29 1   
    29   24   26 1   
    30   24   30 1   
    31   24   31 1   
    32   25   32 1   
    33   25   33 1   
    34   25   34 1   
    35   26   35 1   
    36   26   36 1   
    37   26   37 1   
    38   38   39 1   
    39   38   46 1   
    40   39   40 1   
    41   39   42 1   
    42   39   47 1   
    43   40   41 2   
    44   40   50 1   
    45   42   43 1   
    46   42   48 1   
    47   42   49 1   
    48   43   44 1   
    49   43   45 1   
    50   50   51 1   
    51   50   54 1   
    52   51   52 1   
    53   51   55 1   
    54   51   56 1   
    55   52   53 2   
    56   52   57 1   
    57   57   58 1   
    58   57   65 1   
    59   58   59 1   
    60   58   61 1   
    61   58   66 1   
    62   59   60 2   
    63   59   69 1   
    64   61   62 1   
    65   61   67 1   
    66   61   68 1   
    67   62   63 1   
    68   62   64 1   
    69   69   70 1   
    70   69   73 1   
    71   70   71 1   
    72   70   74 1   
    73   70   75 1   
    74   71   72 2   
    75   71   76 1   
    76   76   77 1   
    77   76   85 1   
    78   77   78 1   
    79   77   80 1   
    80   77   86 1   
    81   78   79 2   
    82   78   93 1   
    83   80   81 1   
    84   80   87 1   
    85   80   88 1   
    86   81   82 1   
    87   81   89 1   
    88   81   90 1   
    89   82   83 1   
    90   82   84 2   
    91   83   91 1   
    92   83   92 1   
    93   93   94 1   
    94   93  100 1   
    95   94   95 1   
    96   94   97 1   
    97   94  101 1   
    98   95   96 2   
    99   95  109 1   
   100   97   98 1   
   101   97   99 1   
   102   97  102 1   
   103   98  103 1   
   104   98  104 1   
   105   98  105 1   
   106   99  106 1   
   107   99  107 1   
   108   99  108 1   
   109  109  110 1   
   110  109  117 1   
   111  110  111 1   
   112  110  113 1   
   113  110  118 1   
   114  111  112 2   
   115  111  123 1   
   116  113  114 1   
   117  113  119 1   
   118  113  120 1   
   119  114  115 1   
   120  114  116 2   
   121  115  121 1   
   122  115  122 1   
   123  123  124 1   
   124  123  135 1   
   125  124  125 1   
   126  124  127 1   
   127  124  136 1   
   128  125  126 2   
   129  125  144 1   
   130  127  128 1   
   131  127  137 1   
   132  127  138 1   
   133  128  129 ar  
   134  128  130 ar  
   135  129  131 ar  
   136  129  139 1   
   137  130  132 ar  
   138  130  140 1   
   139  131  133 ar  
   140  131  141 1   
   141  132  133 ar  
   142  132  142 1   
   143  133  134 1   
   144  134  143 1   
   145  144  145 1   
   146  144  153 1   
   147  145  146 1   
   148  145  148 1   
   149  145  154 1   
   150  146  147 2   
   151  146  159 1   
   152  148  149 1   
   153  148  155 1   
   154  148  156 1   
   155  149  150 1   
   156  149  157 1   
   157  149  158 1   
   158  150  151 1   
   159  150  152 1   
   160  159  160 1   
   161  159  168 1   
   162  160  161 1   
   163  160  163 1   
   164  160  169 1   
   165  161  162 2   
   166  161  174 1   
   167  163  164 1   
   168  163  170 1   
   169  163  171 1   
   170  164  165 1   
   171  164  172 1   
   172  164  173 1   
   173  165  166 1   
   174  165  167 1   
   175  174  175 1   
   176  174  179 1   
   177  175  176 1   
   178  175  177 1   
   179  175  178 1   
   180  181  182 1   
   181  181  183 1   
   182  184  185 1   
   183  184  186 1   
   184  187  188 1   
   185  187  189 1   
@<TRIPOS>SUBSTRUCTURE
     1 MOL         1 TEMP              0 ****  ****    0 ROOT
