@<TRIPOS>MOLECULE
MOL
  195   189     1     0     0
SMALL
resp


@<TRIPOS>ATOM
      1 C1         11.9360   -6.6650    1.7320 c3        1 MOL     -0.212026
      2 C2         11.8060   -5.1460    1.5340 c         1 MOL      0.548570
      3 O1         12.7490   -4.4690    1.8880 o         1 MOL     -0.542722
      4 H1         11.6520   -7.1770    0.8130 hc        1 MOL      0.056533
      5 H2         12.9680   -6.9130    1.9810 hc        1 MOL      0.056533
      6 H3         11.2790   -6.9840    2.5420 hc        1 MOL      0.056533
      7 N1         10.7500   -4.6960    0.8620 n         1 MOL     -0.082850
      8 C3         10.6930   -3.2700    0.5040 c3        1 MOL     -0.416536
      9 C4          9.2230   -2.7660    0.5710 c         1 MOL      0.385788
     10 O2          8.3070   -3.5080    0.2300 o         1 MOL     -0.601860
     11 C5         11.2430   -3.0760   -0.8810 c3        1 MOL      0.061321
     12 C6         10.7770   -4.1340   -1.8700 c         1 MOL      0.488659
     13 O3          9.5250   -4.3290   -2.0560 o         1 MOL     -0.607261
     14 O4         11.5870   -4.8210   -2.4700 o         1 MOL     -0.607261
     15 H4          9.9610   -5.2620    0.5860 hn        1 MOL      0.149800
     16 H5         11.3020   -2.5990    1.1100 h1        1 MOL      0.144084
     17 H6         12.3280   -3.0600   -0.8360 hc        1 MOL      0.041111
     18 H7         10.8920   -2.1120   -1.2570 hc        1 MOL      0.041111
     19 N2          9.0100   -1.5310    0.9870 n         1 MOL     -0.182609
     20 C7          7.6960   -0.8270    1.3170 c3        1 MOL      0.048114
     21 C8          7.3710    0.2930    0.3880 c         1 MOL      0.409806
     22 O5          8.2380    1.0620   -0.0850 o         1 MOL     -0.484240
     23 C9          7.6290   -0.3990    2.8160 c3        1 MOL     -0.523149
     24 C10         8.6720    0.6590    3.1650 c3        1 MOL     -0.035900
     25 C11         8.5550    0.9420    4.6770 c3        1 MOL      0.055023
     26 C12         9.3320    2.1140    5.2160 c3        1 MOL      0.038176
     27 N3          8.8800    2.4510    6.5660 n4        1 MOL     -0.323274
     28 H8          9.8320   -0.9760    1.1450 hn        1 MOL      0.282369
     29 H9          6.9020   -1.5610    1.2030 h1        1 MOL      0.156541
     30 H10         7.5730   -1.2630    3.4690 hc        1 MOL      0.167705
     31 H11         6.6770    0.1210    2.9640 hc        1 MOL      0.167705
     32 H12         8.5690    1.5310    2.5310 hc        1 MOL      0.062898
     33 H13         9.6360    0.2580    2.8380 hc        1 MOL      0.062898
     34 H14         8.6290    0.0800    5.3380 hc        1 MOL      0.013823
     35 H15         7.5150    1.2580    4.7940 hc        1 MOL      0.013823
     36 H16         9.0670    2.9350    4.5470 hx        1 MOL      0.075111
     37 H17        10.3800    1.8820    5.0110 hx        1 MOL      0.075111
     38 H18         8.0150    2.9830    6.5110 hn        1 MOL      0.268455
     39 H19         8.7840    1.7270    7.2610 hn        1 MOL      0.268455
     40 H20         9.6560    3.0340    6.8420 hn        1 MOL      0.268455
     41 N4          6.0570    0.2370    0.0370 n         1 MOL     -0.370638
     42 C13         5.4430    0.9920   -1.0420 c3        1 MOL      0.165420
     43 C14         3.8830    1.1970   -0.9510 c         1 MOL      0.311840
     44 O6          3.3400    0.3070   -0.2960 o         1 MOL     -0.427417
     45 C15         5.7320    0.2990   -2.4290 c3        1 MOL     -0.237417
     46 C16         5.6780   -1.2410   -2.3390 c         1 MOL      0.662500
     47 O7          6.6820   -1.8700   -1.9600 o         1 MOL     -0.685809
     48 O8          4.6350   -1.8590   -2.5560 o         1 MOL     -0.685809
     49 H21         5.4110   -0.2920    0.6030 hn        1 MOL      0.205919
     50 H22         5.9280    1.9670   -0.9510 h1        1 MOL      0.065384
     51 H23         6.7210    0.5470   -2.7940 hc        1 MOL      0.064894
     52 H24         4.9850    0.6140   -3.1600 hc        1 MOL      0.064894
     53 N5          3.2920    2.2900   -1.3810 n         1 MOL     -0.095931
     54 C17         3.8100    3.4370   -2.0650 c3        1 MOL     -0.214632
     55 C18         3.3250    4.7110   -1.4910 c         1 MOL      0.818018
     56 O9          3.1740    4.7030   -0.2800 o         1 MOL     -0.632527
     57 H25         2.3350    2.4380   -1.0800 hn        1 MOL      0.134870
     58 H26         3.6150    3.4660   -3.1410 h1        1 MOL      0.081731
     59 H27         4.8800    3.4440   -1.8860 h1        1 MOL      0.081731
     60 N6          3.0260    5.7330   -2.2340 n         1 MOL     -0.673380
     61 C19         2.7620    7.0590   -1.6270 c3        1 MOL      0.145949
     62 C20         1.4230    7.0760   -0.8990 c         1 MOL      0.446745
     63 O10         1.2230    7.6080    0.1730 o         1 MOL     -0.540392
     64 C21         2.7800    8.2840   -2.5520 c3        1 MOL     -0.115808
     65 C22         3.8770    8.2760   -3.6510 c         1 MOL      0.632404
     66 O11         4.9190    7.6470   -3.4250 o         1 MOL     -0.645478
     67 O12         3.7660    9.0690   -4.6360 o         1 MOL     -0.645478
     68 H28         3.1630    5.6610   -3.2290 hn        1 MOL      0.334760
     69 H29         3.4630    7.2280   -0.8060 h1        1 MOL      0.072036
     70 H30         2.9820    9.0530   -1.8120 hc        1 MOL      0.030020
     71 H31         1.8080    8.4850   -2.9840 hc        1 MOL      0.030020
     72 N7          0.5050    6.3200   -1.4410 n         1 MOL     -0.277714
     73 C23        -0.8290    6.0860   -0.9010 c3        1 MOL     -0.211649
     74 C24        -0.8870    4.9380    0.2520 c         1 MOL      0.453517
     75 O13        -1.9100    4.2690    0.4540 o         1 MOL     -0.459600
     76 H32         0.6240    6.0660   -2.4070 hn        1 MOL      0.271794
     77 H33        -1.4900    5.9050   -1.7400 h1        1 MOL      0.129551
     78 H34        -1.2230    6.9820   -0.4080 h1        1 MOL      0.129551
     79 N8          0.2590    4.5730    0.7220 n         1 MOL     -0.277466
     80 C25         0.4360    3.3760    1.5370 c3        1 MOL     -0.028936
     81 C26         0.1870    2.1270    0.7580 c         1 MOL      0.474965
     82 O14         0.4020    2.0490   -0.4480 o         1 MOL     -0.464647
     83 C27         1.8060    3.3040    2.1930 c3        1 MOL      0.498481
     84 C28         2.3830    4.5530    2.8210 c3        1 MOL     -0.436179
     85 O15         1.7860    2.3640    3.1610 oh        1 MOL     -0.715243
     86 H35         1.0510    5.1760    0.5470 hn        1 MOL      0.243063
     87 H36        -0.3500    3.4910    2.2810 h1        1 MOL      0.068624
     88 H37         2.5350    2.9810    1.4580 h1        1 MOL     -0.048312
     89 H38         2.6770    2.2280    3.4670 ho        1 MOL      0.422839
     90 H39         1.6190    5.2550    3.1550 hc        1 MOL      0.113080
     91 H40         3.0790    4.2750    3.6120 hc        1 MOL      0.113080
     92 H41         2.8350    5.1140    2.0040 hc        1 MOL      0.113080
     93 N9         -0.4140    1.1260    1.4040 n         1 MOL     -0.317995
     94 C29        -0.9050   -0.0470    0.7290 c3        1 MOL     -0.340699
     95 C30        -2.2650    0.1240    0.1850 c         1 MOL      0.632260
     96 O16        -2.6450   -0.7190   -0.6010 o         1 MOL     -0.586581
     97 C31        -0.6490   -1.3160    1.4830 c3        1 MOL      0.401052
     98 C32        -1.6320   -1.6990    2.6140 c3        1 MOL     -0.121155
     99 C33         0.7670   -1.3960    2.0730 c3        1 MOL     -0.279351
    100 C34        -1.3670   -2.8160    3.5570 c3        1 MOL     -0.073340
    101 H42        -0.4460    1.1670    2.4110 hn        1 MOL      0.287739
    102 H43        -0.2670   -0.2390   -0.1290 h1        1 MOL      0.180805
    103 H44        -0.6780   -2.1040    0.7370 hc        1 MOL     -0.038550
    104 H45        -2.6560   -1.8140    2.2660 hc        1 MOL      0.031482
    105 H46        -1.5810   -0.7850    3.2170 hc        1 MOL      0.031482
    106 H47         1.0470   -2.4540    2.0980 hc        1 MOL      0.043435
    107 H48         1.4100   -0.8160    1.4100 hc        1 MOL      0.043435
    108 H49         0.7760   -0.9450    3.0660 hc        1 MOL      0.043435
    109 H50        -0.5930   -2.6140    4.2960 hc        1 MOL      0.022726
    110 H51        -2.2670   -3.0550    4.1330 hc        1 MOL      0.022726
    111 H52        -0.9800   -3.7290    3.0860 hc        1 MOL      0.022726
    112 N10        -3.0200    1.1620    0.5030 n         1 MOL     -0.428498
    113 C35        -4.3790    1.2680    0.0550 c3        1 MOL     -0.073092
    114 C36        -5.3980    1.6760    1.1050 c         1 MOL      0.705973
    115 O17        -5.1390    2.3060    2.0710 o         1 MOL     -0.540454
    116 C37        -4.2310    2.2700   -1.1220 c3        1 MOL      0.412855
    117 C38        -5.2610    2.0820   -2.2040 c3        1 MOL     -0.396024
    118 O18        -4.2000    3.6510   -0.6960 oh        1 MOL     -0.637719
    119 H53        -2.5750    1.8970    1.0440 hn        1 MOL      0.204745
    120 H54        -4.7950    0.3580   -0.3750 h1        1 MOL      0.087219
    121 H55        -3.2160    2.1420   -1.4920 h1        1 MOL      0.045251
    122 H56        -3.3900    3.8190   -0.2180 ho        1 MOL      0.343227
    123 H57        -6.1730    2.2020   -1.6240 hc        1 MOL      0.091406
    124 H58        -5.1800    2.8930   -2.9280 hc        1 MOL      0.091406
    125 H59        -5.2720    1.1170   -2.7170 hc        1 MOL      0.091406
    126 N11        -6.6570    1.2840    0.9310 n         1 MOL     -0.709458
    127 C39        -7.7520    1.7720    1.8330 c3        1 MOL      0.165512
    128 C40        -8.8160    0.7320    2.1410 c         1 MOL      0.592650
    129 O19        -9.2150    0.6440    3.2840 o         1 MOL     -0.546836
    130 C41        -8.3970    2.9600    1.1270 c3        1 MOL      0.298233
    131 C42        -9.6450    3.4140    1.8820 c3        1 MOL     -0.513510
    132 O20        -8.7390    2.6810   -0.2280 oh        1 MOL     -0.587376
    133 H60        -6.8480    0.8800    0.0180 hn        1 MOL      0.333196
    134 H61        -7.3410    2.1120    2.7810 h1        1 MOL      0.084224
    135 H62        -7.6650    3.7740    1.1320 h1        1 MOL      0.042346
    136 H63        -8.9950    3.5260   -0.6240 ho        1 MOL      0.381249
    137 H64        -9.3200    3.5260    2.9080 hc        1 MOL      0.129429
    138 H65        -9.9470    4.4050    1.5480 hc        1 MOL      0.129429
    139 H66       -10.4790    2.7410    1.6490 hc        1 MOL      0.129429
    140 N12        -9.2190   -0.0540    1.0940 n         1 MOL     -0.441625
    141 C43       -10.3340   -1.0040    1.1960 c3        1 MOL     -0.085296
    142 C44       -10.1850   -2.1670    0.2310 c         1 MOL      0.633782
    143 O21        -9.7490   -1.9290   -0.8970 o         1 MOL     -0.509336
    144 C45       -11.6930   -0.3620    0.9710 c3        1 MOL     -0.327917
    145 C46       -11.9160    0.3550   -0.3890 c3        1 MOL      0.156512
    146 C47       -12.9410    1.4140   -0.2410 c3        1 MOL     -0.179161
    147 C48       -12.9410    2.2150   -1.5800 c3        1 MOL      0.170238
    148 N13       -13.9440    3.2550   -1.5860 n4        1 MOL     -0.379904
    149 H67        -8.6970    0.0460    0.2450 hn        1 MOL      0.274625
    150 H68       -10.2190   -1.5160    2.1500 h1        1 MOL      0.123942
    151 H69       -11.7800    0.4550    1.6820 hc        1 MOL      0.126428
    152 H70       -12.5080   -1.0790    1.0630 hc        1 MOL      0.126428
    153 H71       -12.1940   -0.4240   -1.1020 hc        1 MOL      0.010697
    154 H72       -11.0170    0.8410   -0.7600 hc        1 MOL      0.010697
    155 H73       -12.6150    2.0510    0.5840 hc        1 MOL      0.057161
    156 H74       -13.9390    0.9870   -0.1320 hc        1 MOL      0.057161
    157 H75       -13.1060    1.4840   -2.3810 hx        1 MOL      0.048268
    158 H76       -11.9340    2.5490   -1.8120 hx        1 MOL      0.048268
    159 H77       -14.0690    3.6210   -2.5170 hn        1 MOL      0.291706
    160 H78       -14.8560    2.9050   -1.3240 hn        1 MOL      0.291706
    161 H79       -13.6880    3.9900   -0.9310 hn        1 MOL      0.291706
    162 N14       -10.5560   -3.4230    0.5550 n         1 MOL     -0.489243
    163 C49       -10.7490   -4.4290   -0.5150 c3        1 MOL      0.118081
    164 C50        -9.5470   -4.6280   -1.4520 c         1 MOL      0.352355
    165 O22        -9.7920   -4.4920   -2.6410 o         1 MOL     -0.509256
    166 C51       -11.3780   -5.7390    0.0360 c3        1 MOL      0.079020
    167 C52       -11.8390   -6.7270   -1.0430 c3        1 MOL     -0.213663
    168 C53       -12.5290   -7.9370   -0.4420 c         1 MOL      0.680082
    169 O23       -11.8270   -8.9780   -0.3150 o         1 MOL     -0.631491
    170 O24       -13.6060   -7.7950    0.1140 o         1 MOL     -0.631491
    171 H80       -10.8670   -3.6640    1.4860 hn        1 MOL      0.256366
    172 H81       -11.5310   -4.0520   -1.1720 h1        1 MOL      0.069028
    173 H82       -12.2720   -5.4360    0.5870 hc        1 MOL      0.012290
    174 H83       -10.7610   -6.2860    0.7390 hc        1 MOL      0.012290
    175 H84       -10.9760   -6.9550   -1.6640 hc        1 MOL      0.034044
    176 H85       -12.5380   -6.2060   -1.6970 hc        1 MOL      0.034044
    177 N15        -8.3080   -4.9000   -0.9970 n         1 MOL     -0.309303
    178 C54        -7.8600   -5.0380    0.4230 c3        1 MOL     -0.037214
    179 H86        -7.5150   -4.0710    0.7900 h1        1 MOL      0.053698
    180 H87        -8.6930   -5.3820    1.0360 h1        1 MOL      0.053698
    181 H88        -7.0450   -5.7590    0.4790 h1        1 MOL      0.053698
    182 H89        -7.6300   -5.1960   -1.6970 hn        1 MOL      0.278815
    183 Ca1         6.7970   -4.5930   -1.5790 Ca        1 MOL      1.699986
    184 O25         6.9090   -6.5380   -3.6300 oh        1 MOL     -0.857744
    185 H90         7.2660   -7.4150   -3.7570 ho        1 MOL      0.425260
    186 H91         6.4790   -6.3370   -4.4650 ho        1 MOL      0.425260
    187 O26         4.2060   -4.4520   -2.7220 oh        1 MOL     -0.857744
    188 H92         3.6690   -3.7990   -2.2670 ho        1 MOL      0.425260
    189 H93         3.5790   -5.0860   -3.0530 ho        1 MOL      0.425260
    190 O27         7.9750   -3.5640   -4.2070 oh        1 MOL     -0.857744
    191 H94         7.5060   -2.7260   -4.1110 ho        1 MOL      0.425260
    192 H95         8.5920   -3.5760   -3.4800 ho        1 MOL      0.425260
    193 O28         5.1650   -4.0150    0.3920 oh        1 MOL     -0.857744
    194 H96         5.2060   -3.9880    1.3440 ho        1 MOL      0.425260
    195 H97         4.2370   -4.1420    0.1940 ho        1 MOL      0.425260
@<TRIPOS>BOND
     1    1    2 1   
     2    1    4 1   
     3    1    5 1   
     4    1    6 1   
     5    2    3 2   
     6    2    7 1   
     7    7    8 1   
     8    7   15 1   
     9    8    9 1   
    10    8   11 1   
    11    8   16 1   
    12    9   10 2   
    13    9   19 1   
    14   11   12 1   
    15   11   17 1   
    16   11   18 1   
    17   12   13 1   
    18   12   14 1   
    19   19   20 1   
    20   19   28 1   
    21   20   21 1   
    22   20   23 1   
    23   20   29 1   
    24   21   22 2   
    25   21   41 1   
    26   23   24 1   
    27   23   30 1   
    28   23   31 1   
    29   24   25 1   
    30   24   32 1   
    31   24   33 1   
    32   25   26 1   
    33   25   34 1   
    34   25   35 1   
    35   26   27 1   
    36   26   36 1   
    37   26   37 1   
    38   27   38 1   
    39   27   39 1   
    40   27   40 1   
    41   41   42 1   
    42   41   49 1   
    43   42   43 1   
    44   42   45 1   
    45   42   50 1   
    46   43   44 2   
    47   43   53 1   
    48   45   46 1   
    49   45   51 1   
    50   45   52 1   
    51   46   47 1   
    52   46   48 1   
    53   53   54 1   
    54   53   57 1   
    55   54   55 1   
    56   54   58 1   
    57   54   59 1   
    58   55   56 2   
    59   55   60 1   
    60   60   61 1   
    61   60   68 1   
    62   61   62 1   
    63   61   64 1   
    64   61   69 1   
    65   62   63 2   
    66   62   72 1   
    67   64   65 1   
    68   64   70 1   
    69   64   71 1   
    70   65   66 1   
    71   65   67 1   
    72   72   73 1   
    73   72   76 1   
    74   73   74 1   
    75   73   77 1   
    76   73   78 1   
    77   74   75 2   
    78   74   79 1   
    79   79   80 1   
    80   79   86 1   
    81   80   81 1   
    82   80   83 1   
    83   80   87 1   
    84   81   82 2   
    85   81   93 1   
    86   83   84 1   
    87   83   85 1   
    88   83   88 1   
    89   84   90 1   
    90   84   91 1   
    91   84   92 1   
    92   85   89 1   
    93   93   94 1   
    94   93  101 1   
    95   94   95 1   
    96   94   97 1   
    97   94  102 1   
    98   95   96 2   
    99   95  112 1   
   100   97   98 1   
   101   97   99 1   
   102   97  103 1   
   103   98  100 1   
   104   98  104 1   
   105   98  105 1   
   106   99  106 1   
   107   99  107 1   
   108   99  108 1   
   109  100  109 1   
   110  100  110 1   
   111  100  111 1   
   112  112  113 1   
   113  112  119 1   
   114  113  114 1   
   115  113  116 1   
   116  113  120 1   
   117  114  115 2   
   118  114  126 1   
   119  116  117 1   
   120  116  118 1   
   121  116  121 1   
   122  117  123 1   
   123  117  124 1   
   124  117  125 1   
   125  118  122 1   
   126  126  127 1   
   127  126  133 1   
   128  127  128 1   
   129  127  130 1   
   130  127  134 1   
   131  128  129 2   
   132  128  140 1   
   133  130  131 1   
   134  130  132 1   
   135  130  135 1   
   136  131  137 1   
   137  131  138 1   
   138  131  139 1   
   139  132  136 1   
   140  140  141 1   
   141  140  149 1   
   142  141  142 1   
   143  141  144 1   
   144  141  150 1   
   145  142  143 2   
   146  142  162 1   
   147  144  145 1   
   148  144  151 1   
   149  144  152 1   
   150  145  146 1   
   151  145  153 1   
   152  145  154 1   
   153  146  147 1   
   154  146  155 1   
   155  146  156 1   
   156  147  148 1   
   157  147  157 1   
   158  147  158 1   
   159  148  159 1   
   160  148  160 1   
   161  148  161 1   
   162  162  163 1   
   163  162  171 1   
   164  163  164 1   
   165  163  166 1   
   166  163  172 1   
   167  164  165 2   
   168  164  177 1   
   169  166  167 1   
   170  166  173 1   
   171  166  174 1   
   172  167  168 1   
   173  167  175 1   
   174  167  176 1   
   175  168  169 1   
   176  168  170 1   
   177  177  178 1   
   178  177  182 1   
   179  178  179 1   
   180  178  180 1   
   181  178  181 1   
   182  184  185 1   
   183  184  186 1   
   184  187  188 1   
   185  187  189 1   
   186  190  191 1   
   187  190  192 1   
   188  193  194 1   
   189  193  195 1   
@<TRIPOS>SUBSTRUCTURE
     1 MOL         1 TEMP              0 ****  ****    0 ROOT
