@<TRIPOS>MOLECULE
MOL
  198   191     1     0     0
SMALL
resp


@<TRIPOS>ATOM
      1 C1         -6.7950   -4.3880    3.5350 c3        1 MOL     -0.298409
      2 C2         -6.0060   -3.3310    2.7350 c         1 MOL      0.723859
      3 O1         -5.4350   -3.7370    1.7190 o         1 MOL     -0.621880
      4 H1         -7.2940   -5.0680    2.8450 hc        1 MOL      0.073945
      5 H2         -6.1090   -4.9520    4.1680 hc        1 MOL      0.073945
      6 H3         -7.5400   -3.8910    4.1570 hc        1 MOL      0.073945
      7 N1         -5.9990   -2.1100    3.1290 n         1 MOL     -0.419341
      8 C3         -5.5280   -0.9060    2.3440 c3        1 MOL      0.297211
      9 C4         -3.9890   -0.8450    2.0720 c         1 MOL     -0.013010
     10 O2         -3.3890    0.1790    1.5850 o         1 MOL     -0.189902
     11 C5         -6.0250    0.4220    3.0840 c3        1 MOL     -0.277107
     12 C6         -7.6280    0.3370    3.0950 c         1 MOL      0.665908
     13 O3         -8.2310    0.9430    2.2110 o         1 MOL     -0.674731
     14 O4         -8.1700   -0.4040    3.9090 o         1 MOL     -0.674731
     15 H4         -6.3070   -1.9080    4.0690 hn        1 MOL      0.216917
     16 H5         -6.0340   -0.8780    1.3800 h1        1 MOL      0.094855
     17 H6         -5.7320    1.3550    2.6080 hc        1 MOL      0.038500
     18 H7         -5.5920    0.5090    4.0790 hc        1 MOL      0.038500
     19 N2         -3.2940   -1.9660    2.3470 n         1 MOL      0.011081
     20 C7         -1.8840   -2.1530    2.3110 c3        1 MOL      0.170098
     21 C8         -1.2820   -3.0400    1.2550 c         1 MOL      0.362138
     22 O5         -1.7070   -4.1540    1.0420 o         1 MOL     -0.468722
     23 C9         -1.3190   -2.6590    3.6390 c3        1 MOL     -0.099476
     24 C10        -1.6810   -2.0210    5.0120 c3        1 MOL      0.030777
     25 C11        -1.7090   -0.4320    5.0130 c3        1 MOL     -0.130593
     26 C12        -0.2850    0.0310    5.3880 c3        1 MOL      0.279381
     27 N3          0.0780   -0.2360    6.7880 n4        1 MOL     -0.512675
     28 H8         -3.8800   -2.6360    2.8130 hn        1 MOL      0.125687
     29 H9         -1.4300   -1.1580    2.2900 h1        1 MOL     -0.041370
     30 H10        -0.2370   -2.7770    3.5830 hc        1 MOL      0.036822
     31 H11        -1.7180   -3.6680    3.6150 hc        1 MOL      0.036822
     32 H12        -1.0640   -2.3510    5.8460 hc        1 MOL     -0.004430
     33 H13        -2.6590   -2.4260    5.2760 hc        1 MOL     -0.004430
     34 H14        -2.3990   -0.1030    5.7810 hc        1 MOL      0.051745
     35 H15        -2.0010   -0.0390    4.0380 hc        1 MOL      0.051745
     36 H16        -0.2210    1.0880    5.1190 hx        1 MOL      0.013177
     37 H17         0.4250   -0.4000    4.6850 hx        1 MOL      0.013177
     38 H18        -0.5530   -0.8870    7.2310 hn        1 MOL      0.353717
     39 H19         1.0430   -0.5330    6.8600 hn        1 MOL      0.353717
     40 H20         0.0730    0.6210    7.3060 hn        1 MOL      0.353717
     41 N4         -0.2340   -2.6120    0.5120 n         1 MOL     -0.059585
     42 C13         0.5190   -1.3410    0.5370 c3        1 MOL     -0.753183
     43 C14         1.1200   -0.8770    1.8730 c         1 MOL      0.206310
     44 O6          0.6890    0.1640    2.3850 o         1 MOL     -0.472259
     45 C15        -0.1830   -0.2690   -0.3130 c3        1 MOL     -0.082888
     46 C16        -0.4510   -0.7060   -1.7120 c         1 MOL      0.547030
     47 O7          0.2070   -1.6990   -2.1180 o         1 MOL     -0.640729
     48 O8         -1.1210    0.1000   -2.3840 o         1 MOL     -0.640729
     49 H21         0.0540   -3.2860   -0.1820 hn        1 MOL      0.126843
     50 H22         1.3670   -1.5610   -0.1130 h1        1 MOL      0.351912
     51 H23         0.3560    0.6700   -0.2610 hc        1 MOL      0.232745
     52 H24        -1.0970    0.0220    0.1990 hc        1 MOL      0.232745
     53 N5          2.0050   -1.6170    2.5270 n         1 MOL     -0.070374
     54 C17         2.8140   -2.7610    2.1030 c3        1 MOL     -0.029514
     55 C18         3.9990   -3.1330    2.9050 c         1 MOL      0.424674
     56 O9          4.0580   -2.7960    4.1000 o         1 MOL     -0.544590
     57 H25         2.3670   -1.2760    3.4200 hn        1 MOL      0.196106
     58 H26         3.1200   -2.3430    1.1370 h1        1 MOL      0.096833
     59 H27         2.2290   -3.6560    1.8840 h1        1 MOL      0.096833
     60 N6          4.9070   -3.9290    2.3720 n         1 MOL     -0.240115
     61 C19         4.9510   -4.3660    0.9760 c3        1 MOL     -0.326749
     62 C20         5.9050   -3.5610    0.0690 c         1 MOL      0.530372
     63 O10         5.7730   -3.7690   -1.1850 o         1 MOL     -0.530850
     64 C21         5.3110   -5.8580    0.8550 c3        1 MOL      0.001844
     65 C22         6.5210   -6.3540    1.6070 c         1 MOL      0.646422
     66 O11         7.6690   -5.8420    1.4070 o         1 MOL     -0.680086
     67 O12         6.3950   -7.4620    2.2190 o         1 MOL     -0.680086
     68 H28         5.6590   -4.2700    2.9540 hn        1 MOL      0.263763
     69 H29         4.0050   -4.1140    0.4700 h1        1 MOL      0.124412
     70 H30         5.3940   -6.1300   -0.1960 hc        1 MOL      0.029323
     71 H31         4.4430   -6.4520    1.1450 hc        1 MOL      0.029323
     72 N7          6.7480   -2.6480    0.6730 n         1 MOL     -0.306772
     73 C23         7.7060   -1.7800   -0.0120 c3        1 MOL     -0.176376
     74 C24         7.0480   -0.7040   -0.8200 c         1 MOL      0.605183
     75 O13         7.0550   -0.7180   -2.0040 o         1 MOL     -0.563556
     76 H32         6.6730   -2.6840    1.6730 hn        1 MOL      0.256105
     77 H33         8.3060   -2.4400   -0.6310 h1        1 MOL      0.123275
     78 H34         8.3800   -1.2030    0.6250 h1        1 MOL      0.123275
     79 N8          6.4220    0.2250   -0.1400 n         1 MOL     -0.469602
     80 C25         5.7220    1.3000   -0.8150 c3        1 MOL      0.046515
     81 C26         5.7890    2.6280    0.0020 c         1 MOL      0.394663
     82 O14         6.1290    2.5680    1.1950 o         1 MOL     -0.503952
     83 C27         4.2440    0.9960   -0.9220 c3        1 MOL      0.227026
     84 C28         3.4950    0.9760    0.3930 c3        1 MOL      0.084315
     85 O15         3.9610   -0.2260   -1.5690 oh        1 MOL     -0.670800
     86 H35         6.4340    0.2250    0.8740 hn        1 MOL      0.291501
     87 H36         6.0810    1.4680   -1.8300 h1        1 MOL      0.063680
     88 H37         3.8340    1.8270   -1.4960 h1        1 MOL     -0.025772
     89 H38         4.4940   -0.1570   -2.3740 ho        1 MOL      0.415304
     90 H39         3.5400    2.0170    0.7230 hc        1 MOL     -0.015091
     91 H40         2.4670    0.7450    0.1550 hc        1 MOL     -0.015091
     92 H41         4.0500    0.3750    1.1180 hc        1 MOL     -0.015091
     93 N9          5.5540    3.7330   -0.6470 n         1 MOL     -0.181905
     94 C29         5.4960    5.0330    0.0170 c3        1 MOL     -0.034575
     95 C30         4.1280    5.1250    0.6900 c         1 MOL      0.536793
     96 O16         3.9970    5.3980    1.8830 o         1 MOL     -0.536427
     97 C31         5.8490    6.1360   -1.0340 c3        1 MOL      0.148102
     98 C32         7.1580    5.9050   -1.7730 c3        1 MOL     -0.107433
     99 C33         5.8960    7.4510   -0.2390 c3        1 MOL     -0.259579
    100 C34         8.3930    5.8760   -0.8660 c3        1 MOL     -0.149627
    101 H42         5.2560    3.6390   -1.6100 hn        1 MOL      0.187047
    102 H43         6.2480    5.0270    0.7970 h1        1 MOL      0.088363
    103 H44         4.9890    6.2580   -1.6950 hc        1 MOL     -0.043642
    104 H45         7.2210    6.6990   -2.5080 hc        1 MOL      0.038333
    105 H46         7.1290    4.9120   -2.2170 hc        1 MOL      0.038333
    106 H47         6.2120    8.2140   -0.9530 hc        1 MOL      0.076834
    107 H48         4.9870    7.6600    0.3220 hc        1 MOL      0.076834
    108 H49         6.6260    7.3080    0.5620 hc        1 MOL      0.076834
    109 H50         8.8230    6.8490   -0.6370 hc        1 MOL      0.049058
    110 H51         8.3540    5.1820   -0.0280 hc        1 MOL      0.049058
    111 H52         9.1080    5.3890   -1.5380 hc        1 MOL      0.049058
    112 N10         3.0770    4.6930   -0.0210 n         1 MOL     -0.190239
    113 C35         1.7600    5.1060    0.3310 c3        1 MOL     -0.090670
    114 C36         0.8440    3.9640    0.3080 c         1 MOL      0.603543
    115 O17         0.8750    3.0560   -0.5140 o         1 MOL     -0.561972
    116 C37         1.1900    6.1920   -0.6430 c3        1 MOL      0.461587
    117 C38         1.3610    5.9610   -2.1290 c3        1 MOL     -0.381396
    118 O18         1.8110    7.3740   -0.3500 oh        1 MOL     -0.652253
    119 H53         3.2510    4.4570   -0.9940 hn        1 MOL      0.153041
    120 H54         1.6560    5.4770    1.3550 h1        1 MOL      0.103283
    121 H55         0.1390    6.2580   -0.3650 h1        1 MOL     -0.045042
    122 H56         1.3490    7.9840   -0.9260 ho        1 MOL      0.390232
    123 H57         1.0630    4.9370   -2.3900 hc        1 MOL      0.093601
    124 H58         0.7550    6.6690   -2.6940 hc        1 MOL      0.093601
    125 H59         2.3770    6.1350   -2.4560 hc        1 MOL      0.093601
    126 N11        -0.1500    4.0290    1.1960 n         1 MOL     -0.589074
    127 C39        -1.2810    3.0570    1.3040 c3        1 MOL     -0.054995
    128 C40        -2.4280    3.4790    0.3550 c         1 MOL      0.673613
    129 O19        -2.5860    4.6270    0.0710 o         1 MOL     -0.595976
    130 C41        -1.7040    2.8930    2.7330 c3        1 MOL      0.400233
    131 C42        -2.2410    4.1510    3.4630 c3        1 MOL     -0.230502
    132 O20        -0.4640    2.5640    3.3620 oh        1 MOL     -0.595928
    133 H60        -0.1680    4.7600    1.9000 hn        1 MOL      0.316021
    134 H61        -0.7960    2.1370    0.9720 h1        1 MOL      0.174085
    135 H62        -2.4630    2.1220    2.7470 h1        1 MOL     -0.048927
    136 H63        -0.0800    1.8780    2.8120 ho        1 MOL      0.361186
    137 H64        -1.4500    4.9010    3.5640 hc        1 MOL      0.062059
    138 H65        -3.0260    4.6030    2.8540 hc        1 MOL      0.062059
    139 H66        -2.6600    3.9420    4.4460 hc        1 MOL      0.062059
    140 N12        -3.1010    2.4320   -0.1710 n         1 MOL     -0.072010
    141 C43        -4.1330    2.6240   -1.2420 c3        1 MOL     -0.159697
    142 C44        -4.3780    1.2930   -1.9580 c         1 MOL      0.768304
    143 O21        -4.8690    1.3190   -3.0850 o         1 MOL     -0.640706
    144 C45        -5.5290    2.9960   -0.6120 c3        1 MOL     -0.159419
    145 C46        -6.4570    3.8560   -1.5120 c3        1 MOL      0.096992
    146 C47        -5.9800    5.3190   -1.8010 c3        1 MOL     -0.288674
    147 C48        -7.1260    5.7440   -2.6270 c3        1 MOL      0.211594
    148 N13        -7.0260    7.1730   -3.0180 n4        1 MOL     -0.374267
    149 H67        -2.8210    1.5350    0.2070 hn        1 MOL     -0.398216
    150 H68        -3.7730    3.3730   -1.9480 h1        1 MOL      0.093928
    151 H69        -5.3560    3.6650    0.2400 hc        1 MOL      0.086065
    152 H70        -6.0140    2.0740   -0.2830 hc        1 MOL      0.086065
    153 H71        -7.4480    3.8490   -1.0500 hc        1 MOL      0.027344
    154 H72        -6.6240    3.3710   -2.4700 hc        1 MOL      0.027344
    155 H73        -5.0510    5.2280   -2.3800 hc        1 MOL      0.100870
    156 H74        -5.8400    5.8070   -0.8390 hc        1 MOL      0.100870
    157 H75        -8.0340    5.6070   -2.0500 hx        1 MOL      0.051007
    158 H76        -7.2670    5.1910   -3.5490 hx        1 MOL      0.051007
    159 H77        -7.4920    7.4220   -3.8760 hn        1 MOL      0.309854
    160 H78        -7.2590    7.7750   -2.2430 hn        1 MOL      0.309854
    161 H79        -6.0370    7.3030   -3.2150 hn        1 MOL      0.309854
    162 N14        -4.1880    0.0720   -1.3970 n         1 MOL     -0.041568
    163 C49        -4.2820   -1.2040   -2.1220 c3        1 MOL     -0.988676
    164 C50        -5.7760   -1.4890   -2.4560 c         1 MOL      0.609486
    165 O22        -6.6470   -1.3310   -1.5570 o         1 MOL     -0.524433
    166 C51        -3.6550   -2.4040   -1.2280 c3        1 MOL      0.976728
    167 C52        -3.5070   -3.8050   -1.8410 c3        1 MOL     -0.698038
    168 C53        -2.9770   -3.7700   -3.2980 c         1 MOL      0.776765
    169 O23        -3.7380   -3.4050   -4.2410 o         1 MOL     -0.747594
    170 O24        -1.7700   -3.9990   -3.5500 o         1 MOL     -0.747594
    171 H80        -3.6780    0.1480   -0.5310 hn        1 MOL      0.173560
    172 H81        -3.7010   -1.0360   -3.0200 h1        1 MOL      0.275491
    173 H82        -4.2110   -2.5710   -0.3130 hc        1 MOL     -0.160907
    174 H83        -2.6840   -2.0260   -0.8940 hc        1 MOL     -0.160907
    175 H84        -4.4780   -4.2940   -1.8490 hc        1 MOL      0.173649
    176 H85        -2.9700   -4.3420   -1.0580 hc        1 MOL      0.173649
    177 N15        -6.0280   -2.0030   -3.6630 n         1 MOL     -0.325449
    178 C54        -7.3000   -2.4530   -4.0490 c3        1 MOL     -0.046652
    179 H86        -7.3820   -2.4190   -5.1350 h1        1 MOL      0.047030
    180 H87        -7.4430   -3.4780   -3.7060 h1        1 MOL      0.047030
    181 H88        -8.0620   -1.8110   -3.6070 h1        1 MOL      0.047030
    182 H89        -5.1670   -2.1730   -4.1550 hn        1 MOL      0.385991
    183 Ca1         0.7640   -3.5890   -3.7000 Ca        1 MOL      1.793556
    184 O25         2.8680   -2.7950   -2.1360 oh        1 MOL     -0.904684
    185 H90         3.7300   -3.1910   -1.9970 ho        1 MOL      0.441395
    186 H91         3.0160   -1.8600   -2.0410 ho        1 MOL      0.441395
    187 O26        -0.8860   -6.3230   -4.1350 oh        1 MOL     -0.904684
    188 H92        -1.4000   -5.5710   -3.8410 ho        1 MOL      0.441395
    189 H93        -1.2410   -6.5380   -5.0070 ho        1 MOL      0.441395
    190 O27        -0.0800   -4.1720   -6.2030 oh        1 MOL     -0.904684
    191 H94        -0.1650   -4.9370   -6.7700 ho        1 MOL      0.441395
    192 H95        -0.0730   -3.4210   -6.8170 ho        1 MOL      0.441395
    193 O28         0.8610   -1.2520   -5.0380 oh        1 MOL     -0.904684
    194 H96         0.0250   -0.8050   -4.8980 ho        1 MOL      0.441395
    195 H97         1.3960   -0.6200   -5.5170 ho        1 MOL      0.441395
    196 O29         2.9750   -3.4600   -5.2670 oh        1 MOL     -0.904684
    197 H98         3.8650   -3.7110   -4.9980 ho        1 MOL      0.441395
    198 H99         3.0980   -2.9490   -6.0600 ho        1 MOL      0.441395
@<TRIPOS>BOND
     1    1    2 1   
     2    1    4 1   
     3    1    5 1   
     4    1    6 1   
     5    2    3 2   
     6    2    7 1   
     7    7    8 1   
     8    7   15 1   
     9    8    9 1   
    10    8   11 1   
    11    8   16 1   
    12    9   10 2   
    13    9   19 1   
    14   11   12 1   
    15   11   17 1   
    16   11   18 1   
    17   12   13 1   
    18   12   14 1   
    19   19   20 1   
    20   19   28 1   
    21   20   21 1   
    22   20   23 1   
    23   20   29 1   
    24   21   22 2   
    25   21   41 1   
    26   23   24 1   
    27   23   30 1   
    28   23   31 1   
    29   24   25 1   
    30   24   32 1   
    31   24   33 1   
    32   25   26 1   
    33   25   34 1   
    34   25   35 1   
    35   26   27 1   
    36   26   36 1   
    37   26   37 1   
    38   27   38 1   
    39   27   39 1   
    40   27   40 1   
    41   41   42 1   
    42   41   49 1   
    43   42   43 1   
    44   42   45 1   
    45   42   50 1   
    46   43   44 2   
    47   43   53 1   
    48   45   46 1   
    49   45   51 1   
    50   45   52 1   
    51   46   47 1   
    52   46   48 1   
    53   53   54 1   
    54   53   57 1   
    55   54   55 1   
    56   54   58 1   
    57   54   59 1   
    58   55   56 2   
    59   55   60 1   
    60   60   61 1   
    61   60   68 1   
    62   61   62 1   
    63   61   64 1   
    64   61   69 1   
    65   62   63 2   
    66   62   72 1   
    67   64   65 1   
    68   64   70 1   
    69   64   71 1   
    70   65   66 1   
    71   65   67 1   
    72   72   73 1   
    73   72   76 1   
    74   73   74 1   
    75   73   77 1   
    76   73   78 1   
    77   74   75 2   
    78   74   79 1   
    79   79   80 1   
    80   79   86 1   
    81   80   81 1   
    82   80   83 1   
    83   80   87 1   
    84   81   82 2   
    85   81   93 1   
    86   83   84 1   
    87   83   85 1   
    88   83   88 1   
    89   84   90 1   
    90   84   91 1   
    91   84   92 1   
    92   85   89 1   
    93   93   94 1   
    94   93  101 1   
    95   94   95 1   
    96   94   97 1   
    97   94  102 1   
    98   95   96 2   
    99   95  112 1   
   100   97   98 1   
   101   97   99 1   
   102   97  103 1   
   103   98  100 1   
   104   98  104 1   
   105   98  105 1   
   106   99  106 1   
   107   99  107 1   
   108   99  108 1   
   109  100  109 1   
   110  100  110 1   
   111  100  111 1   
   112  112  113 1   
   113  112  119 1   
   114  113  114 1   
   115  113  116 1   
   116  113  120 1   
   117  114  115 2   
   118  114  126 1   
   119  116  117 1   
   120  116  118 1   
   121  116  121 1   
   122  117  123 1   
   123  117  124 1   
   124  117  125 1   
   125  118  122 1   
   126  126  127 1   
   127  126  133 1   
   128  127  128 1   
   129  127  130 1   
   130  127  134 1   
   131  128  129 2   
   132  128  140 1   
   133  130  131 1   
   134  130  132 1   
   135  130  135 1   
   136  131  137 1   
   137  131  138 1   
   138  131  139 1   
   139  132  136 1   
   140  140  141 1   
   141  140  149 1   
   142  141  142 1   
   143  141  144 1   
   144  141  150 1   
   145  142  143 2   
   146  142  162 1   
   147  144  145 1   
   148  144  151 1   
   149  144  152 1   
   150  145  146 1   
   151  145  153 1   
   152  145  154 1   
   153  146  147 1   
   154  146  155 1   
   155  146  156 1   
   156  147  148 1   
   157  147  157 1   
   158  147  158 1   
   159  148  159 1   
   160  148  160 1   
   161  148  161 1   
   162  162  163 1   
   163  162  171 1   
   164  163  164 1   
   165  163  166 1   
   166  163  172 1   
   167  164  165 2   
   168  164  177 1   
   169  166  167 1   
   170  166  173 1   
   171  166  174 1   
   172  167  168 1   
   173  167  175 1   
   174  167  176 1   
   175  168  169 1   
   176  168  170 1   
   177  177  178 1   
   178  177  182 1   
   179  178  179 1   
   180  178  180 1   
   181  178  181 1   
   182  184  185 1   
   183  184  186 1   
   184  187  188 1   
   185  187  189 1   
   186  190  191 1   
   187  190  192 1   
   188  193  194 1   
   189  193  195 1   
   190  196  197 1   
   191  196  198 1   
@<TRIPOS>SUBSTRUCTURE
     1 MOL         1 TEMP              0 ****  ****    0 ROOT
