@<TRIPOS>MOLECULE
MOL
  198   191     1     0     0
SMALL
resp


@<TRIPOS>ATOM
      1 C1          1.3400   -4.4480   -2.5470 c3        1 MOL     -0.659755
      2 C2          0.3470   -4.2340   -1.3510 c         1 MOL      0.632837
      3 O1         -0.5290   -3.3740   -1.3710 o         1 MOL     -0.455286
      4 H1          1.8180   -5.4230   -2.4520 hc        1 MOL      0.157465
      5 H2          0.7920   -4.4040   -3.4880 hc        1 MOL      0.157465
      6 H3          2.1010   -3.6680   -2.5320 hc        1 MOL      0.157465
      7 N1          0.2480   -5.2470   -0.4700 n         1 MOL     -0.418756
      8 C3         -0.5250   -5.4520    0.7880 c3        1 MOL     -0.165827
      9 C4         -2.0340   -5.4720    0.5290 c         1 MOL      0.777675
     10 O2         -2.8410   -5.1060    1.4010 o         1 MOL     -0.552826
     11 C5         -0.1380   -4.4120    1.8760 c3        1 MOL     -0.345961
     12 C6          1.3360   -4.1970    2.0810 c         1 MOL      0.710020
     13 O3          1.8270   -3.0630    2.1390 o         1 MOL     -0.626224
     14 O4          2.0150   -5.1920    2.1870 o         1 MOL     -0.626224
     15 H4          0.8660   -6.0210   -0.6500 hn        1 MOL      0.275344
     16 H5         -0.3460   -6.3720    1.3580 h1        1 MOL      0.115684
     17 H6         -0.5190   -4.6230    2.8720 hc        1 MOL      0.121972
     18 H7         -0.6370   -3.4760    1.6220 hc        1 MOL      0.121972
     19 N2         -2.5570   -5.8240   -0.6690 n         1 MOL     -0.719165
     20 C7         -3.9030   -5.5240   -1.1900 c3        1 MOL      0.112622
     21 C8         -5.0130   -6.1460   -0.3260 c         1 MOL      0.590984
     22 O5         -5.0950   -7.3640   -0.1420 o         1 MOL     -0.600375
     23 C9         -4.0810   -5.8590   -2.6870 c3        1 MOL      0.054053
     24 C10        -3.2730   -5.0370   -3.6790 c3        1 MOL     -0.072380
     25 C11        -5.5430   -5.9350   -3.1380 c3        1 MOL     -0.316260
     26 C12        -3.2810   -3.5570   -3.5210 c3        1 MOL     -0.066134
     27 H8         -1.8850   -6.1560   -1.3560 hn        1 MOL      0.318559
     28 H9         -3.9850   -4.4390   -1.1600 h1        1 MOL      0.201838
     29 H10        -3.7160   -6.8830   -2.7780 hc        1 MOL      0.003522
     30 H11        -3.5610   -5.3520   -4.6830 hc        1 MOL      0.024316
     31 H12        -2.2310   -5.3500   -3.6360 hc        1 MOL      0.024316
     32 H13        -6.1680   -6.5970   -2.5270 hc        1 MOL      0.079428
     33 H14        -6.1050   -4.9970   -3.0450 hc        1 MOL      0.079428
     34 H15        -5.5750   -6.3680   -4.1410 hc        1 MOL      0.079428
     35 H16        -2.8090   -3.2340   -2.5990 hc        1 MOL      0.029382
     36 H17        -2.7340   -3.1520   -4.3710 hc        1 MOL      0.029382
     37 H18        -4.3330   -3.2460   -3.5550 hc        1 MOL      0.029382
     38 N3         -5.8240   -5.3340    0.3540 n         1 MOL     -0.397507
     39 C13        -5.7970   -3.8530    0.5410 c3        1 MOL     -0.110493
     40 C14        -6.4500   -3.3910    1.8370 c         1 MOL      0.677660
     41 O6         -7.5620   -3.7900    2.2310 o         1 MOL     -0.578764
     42 C15        -6.4660   -3.2460   -0.7370 c3        1 MOL     -0.315065
     43 C16        -6.9240   -1.7550   -0.6360 c         1 MOL      0.773120
     44 O7         -7.9330   -1.3290   -1.1720 o         1 MOL     -0.711521
     45 O8         -6.2040   -0.8720   -0.0750 o         1 MOL     -0.711521
     46 H19        -6.4030   -5.8300    1.0210 hn        1 MOL      0.260115
     47 H20        -4.7720   -3.4410    0.5450 h1        1 MOL      0.038129
     48 H21        -7.3940   -3.8040   -0.9110 hc        1 MOL      0.088614
     49 H22        -5.8440   -3.3880   -1.6170 hc        1 MOL      0.088614
     50 N4         -5.9140   -2.3450    2.4280 n         1 MOL     -0.436744
     51 C17        -6.3100   -1.8450    3.7350 c3        1 MOL     -0.102315
     52 C18        -7.2240   -0.6730    3.7690 c         1 MOL      0.567475
     53 O9         -7.6230   -0.3110    4.8480 o         1 MOL     -0.587115
     54 H23        -5.1570   -1.8700    1.9630 hn        1 MOL      0.298807
     55 H24        -5.4000   -1.5540    4.2540 h1        1 MOL      0.093205
     56 H25        -6.5810   -2.6740    4.3910 h1        1 MOL      0.093205
     57 N5         -7.3460    0.0950    2.6740 n         1 MOL     -0.455100
     58 C19        -7.7090    1.5500    2.6880 c3        1 MOL      0.010867
     59 C20        -7.9940    2.0170    1.3200 c         1 MOL      0.355273
     60 O10        -8.6780    3.0320    1.2040 o         1 MOL     -0.601251
     61 C21        -6.4610    2.4240    3.2090 c3        1 MOL     -0.243069
     62 C22        -5.0970    1.8460    2.7060 c         1 MOL      0.789307
     63 O11        -4.5410    2.3770    1.7710 o         1 MOL     -0.700876
     64 O12        -4.4700    0.9460    3.2720 o         1 MOL     -0.700876
     65 H26        -6.8460   -0.3400    1.9130 hn        1 MOL      0.291692
     66 H27        -8.6700    1.6260    3.1900 h1        1 MOL      0.122720
     67 H28        -6.3700    2.3030    4.2940 hc        1 MOL      0.051683
     68 H29        -6.6120    3.4920    3.0650 hc        1 MOL      0.051683
     69 N6         -7.5160    1.4370    0.2510 n         1 MOL      0.033250
     70 C23        -7.6430    1.8850   -1.0810 c3        1 MOL     -0.371022
     71 C24        -6.9300    3.1150   -1.4330 c         1 MOL      0.554960
     72 O13        -7.2850    3.6820   -2.4690 o         1 MOL     -0.615935
     73 H30        -7.0210    0.5640    0.3860 hn        1 MOL      0.133474
     74 H31        -8.6810    1.9590   -1.4050 h1        1 MOL      0.161287
     75 H32        -7.2320    1.0660   -1.6770 h1        1 MOL      0.161287
     76 N7         -5.9780    3.5800   -0.5970 n         1 MOL     -0.128884
     77 C25        -5.1040    4.6930   -0.6620 c3        1 MOL      0.065690
     78 C26        -4.1590    4.6010   -1.8580 c         1 MOL      0.365827
     79 O14        -3.7560    5.6220   -2.3960 o         1 MOL     -0.516154
     80 C27        -5.7570    6.0310   -0.3680 c3        1 MOL      0.075104
     81 C28        -6.7240    6.1970    0.8120 c3        1 MOL     -0.174111
     82 C29        -7.3130    7.6250    0.8530 c         1 MOL      0.663658
     83 N8         -8.6300    7.8350    1.0020 n         1 MOL     -0.808136
     84 O15        -6.5370    8.5550    0.8220 o         1 MOL     -0.590297
     85 H33        -5.7760    2.8630    0.0770 hn        1 MOL      0.077244
     86 H34        -4.4740    4.5530    0.2160 h1        1 MOL      0.050500
     87 H35        -6.3330    6.2900   -1.2610 hc        1 MOL      0.001371
     88 H36        -4.9160    6.7160   -0.3480 hc        1 MOL      0.001371
     89 H37        -6.2970    6.1740    1.8170 hc        1 MOL      0.060376
     90 H38        -7.5570    5.5090    0.6790 hc        1 MOL      0.060376
     91 H39        -9.1990    7.0160    1.1610 hn        1 MOL      0.355326
     92 H40        -8.9520    8.7940    1.0480 hn        1 MOL      0.355326
     93 N9         -3.7470    3.3840   -2.2890 n         1 MOL     -0.129764
     94 C30        -2.9460    3.0230   -3.5060 c3        1 MOL     -0.158679
     95 C31        -1.5360    2.5160   -3.3980 c         1 MOL      0.494747
     96 O16        -0.7180    2.3410   -4.3560 o         1 MOL     -0.561033
     97 C32        -3.7200    1.9910   -4.3900 c3        1 MOL      0.172923
     98 C33        -3.8010    0.5600   -3.7580 c3        1 MOL     -0.114054
     99 C34        -5.1230    2.3670   -4.8900 c3        1 MOL     -0.114054
    100 H41        -3.9950    2.5960   -1.7050 hn        1 MOL      0.222031
    101 H42        -2.8060    3.9440   -4.0690 h1        1 MOL      0.105144
    102 H43        -3.1770    1.7770   -5.3060 hc        1 MOL     -0.025732
    103 H44        -4.2180   -0.1670   -4.4530 hc        1 MOL      0.020882
    104 H45        -2.8740    0.1080   -3.3800 hc        1 MOL      0.020882
    105 H46        -4.4650    0.7820   -2.9260 hc        1 MOL      0.020882
    106 H47        -5.3760    1.6720   -5.6950 hc        1 MOL      0.020882
    107 H48        -5.8060    2.2660   -4.0490 hc        1 MOL      0.020882
    108 H49        -5.0990    3.3090   -5.4380 hc        1 MOL      0.020882
    109 N10        -1.2830    2.2110   -2.1210 n         1 MOL     -0.362736
    110 C35        -0.1070    1.4750   -1.6210 c3        1 MOL      0.271856
    111 C36         0.8450    2.2050   -0.6470 c         1 MOL      0.427238
    112 O17         0.4100    3.0340    0.1120 o         1 MOL     -0.487696
    113 C37        -0.7010    0.1140   -1.1890 c3        1 MOL      0.019327
    114 C38         0.2520   -0.6670   -0.2680 c         1 MOL      0.366407
    115 N11        -0.2130   -0.8800    0.9830 n         1 MOL     -0.545121
    116 O18         1.3620   -1.0620   -0.6630 o         1 MOL     -0.503778
    117 H50        -1.9360    2.5460   -1.4220 hn        1 MOL      0.175621
    118 H51         0.5530    1.2220   -2.4440 h1        1 MOL     -0.010061
    119 H52        -0.8610   -0.4730   -2.0870 hc        1 MOL      0.027822
    120 H53        -1.6480    0.2370   -0.6580 hc        1 MOL      0.027822
    121 H54        -1.0020   -0.3180    1.2790 hn        1 MOL      0.328125
    122 H55         0.3780   -1.5100    1.5040 hn        1 MOL      0.328125
    123 N12         2.1070    1.7500   -0.5630 n         1 MOL     -0.475197
    124 C39         3.0740    2.0960    0.4880 c3        1 MOL      0.110032
    125 C40         4.5320    2.2060   -0.0580 c         1 MOL      0.521748
    126 O19         4.9210    1.3640   -0.9280 o         1 MOL     -0.569477
    127 C41         3.0230    1.0530    1.5590 c3        1 MOL      0.189016
    128 C42         3.8620    1.4120    2.8170 ca        1 MOL     -0.007380
    129 C43         3.3420    2.3070    3.8150 ca        1 MOL     -0.155427
    130 C44         5.1900    0.9760    2.8840 ca        1 MOL     -0.155427
    131 C45         4.2080    2.5740    4.9590 ca        1 MOL     -0.263501
    132 C46         6.0340    1.2580    4.0060 ca        1 MOL     -0.263501
    133 C47         5.5290    2.0810    5.0670 ca        1 MOL      0.333529
    134 O20         6.2390    2.4260    6.1500 oh        1 MOL     -0.482970
    135 H56         2.4840    1.2090   -1.3210 hn        1 MOL      0.291672
    136 H57         2.7180    3.0290    0.9050 h1        1 MOL      0.044615
    137 H58         3.3170    0.0610    1.2090 hc        1 MOL     -0.037557
    138 H59         2.0670    0.7780    2.0140 hc        1 MOL     -0.037557
    139 H60         2.3130    2.6240    3.7330 ha        1 MOL      0.138755
    140 H61         5.4910    0.2180    2.1770 ha        1 MOL      0.138755
    141 H62         3.8120    3.0860    5.8190 ha        1 MOL      0.137646
    142 H63         7.0050    0.8150    4.1400 ha        1 MOL      0.137646
    143 H64         5.7550    3.1170    6.6160 ho        1 MOL      0.356670
    144 N13         5.2860    3.1980    0.3420 n         1 MOL     -0.490462
    145 C48         6.6620    3.4310   -0.0560 c3        1 MOL      0.132014
    146 C49         7.7050    3.2870    1.0800 c         1 MOL      0.668009
    147 O21         7.9490    4.1430    1.9290 o         1 MOL     -0.579611
    148 C50         6.7110    4.8000   -0.7090 c3        1 MOL      0.183818
    149 C51         7.8780    4.9790   -1.6950 c3        1 MOL     -0.267329
    150 C52         8.0700    6.4730   -2.0060 c         1 MOL      0.710045
    151 O22         8.4570    7.1940   -1.1050 o         1 MOL     -0.691265
    152 O23         8.0690    6.8890   -3.2010 o         1 MOL     -0.691265
    153 H65         5.0380    3.5890    1.2400 hn        1 MOL      0.254225
    154 H66         6.9300    2.7970   -0.8990 h1        1 MOL      0.082461
    155 H67         6.7700    5.5880    0.0390 hc        1 MOL     -0.043278
    156 H68         5.7690    4.9810   -1.2240 hc        1 MOL     -0.043278
    157 H69         7.5900    4.4210   -2.5890 hc        1 MOL      0.044577
    158 H70         8.7680    4.5750   -1.2260 hc        1 MOL      0.044577
    159 N14         8.6080    2.3170    1.1220 n         1 MOL     -0.639495
    160 C53         8.5160    0.9730    0.4680 c3        1 MOL      0.092784
    161 C54         8.8300    1.1270   -1.0500 c         1 MOL      0.448998
    162 O24         9.8260    1.8240   -1.4520 o         1 MOL     -0.553181
    163 C55         9.3680   -0.0310    1.2010 c3        1 MOL      0.202394
    164 C56         9.5690   -1.4070    0.5370 c3        1 MOL     -0.329810
    165 C57         8.2180   -2.1470    0.2960 c         1 MOL      0.885249
    166 O25         7.1740   -1.5890    0.0320 o         1 MOL     -0.783885
    167 O26         8.1820   -3.3850    0.4730 o         1 MOL     -0.783885
    168 H71         9.3590    2.5220    1.7530 hn        1 MOL      0.314367
    169 H72         7.4920    0.6920    0.7000 h1        1 MOL      0.035673
    170 H73         8.9620   -0.2170    2.1860 hc        1 MOL     -0.011882
    171 H74        10.3890    0.3100    1.3900 hc        1 MOL     -0.011882
    172 H75        10.2800   -2.0240    1.1030 hc        1 MOL      0.048380
    173 H76        10.0360   -1.2100   -0.4290 hc        1 MOL      0.048380
    174 N15         7.9430    0.4750   -1.8290 n         1 MOL     -0.141768
    175 C58         7.9130    0.4060   -3.3230 c3        1 MOL     -0.444822
    176 H77         8.5130   -0.4400   -3.6590 h1        1 MOL      0.153900
    177 H78         6.8850    0.2800   -3.6610 h1        1 MOL      0.153900
    178 H79         8.3230    1.3280   -3.7380 h1        1 MOL      0.153900
    179 H80         7.2420   -0.0640   -1.3380 hn        1 MOL      0.212725
    180 Ca1         5.6990   -3.6100   -0.4980 Ca        1 MOL      1.695828
    181 O27         3.5050   -2.3510    0.1890 oh        1 MOL     -0.797529
    182 H81         2.8810   -1.7980   -0.2610 ho        1 MOL      0.371917
    183 H82         3.0350   -2.6800    0.9500 ho        1 MOL      0.371917
    184 O28         4.9290   -1.4310   -2.2290 oh        1 MOL     -0.797529
    185 H83         4.1070   -1.3540   -2.7100 ho        1 MOL      0.371917
    186 H84         4.9690   -0.6380   -1.6900 ho        1 MOL      0.371917
    187 O29         4.2090   -5.3490    0.6720 oh        1 MOL     -0.797529
    188 H85         3.4660   -5.2410    1.2590 ho        1 MOL      0.371917
    189 H86         4.2650   -6.3020    0.5500 ho        1 MOL      0.371917
    190 O30         7.4620   -4.1330   -2.3820 oh        1 MOL     -0.797529
    191 H87         7.3380   -5.0690   -2.5650 ho        1 MOL      0.371917
    192 H88         8.3880   -3.9780   -2.5760 ho        1 MOL      0.371917
    193 O31         6.6390   -6.1620   -0.5310 oh        1 MOL     -0.797529
    194 H89         6.8770   -6.7140    0.2080 ho        1 MOL      0.371917
    195 H90         7.1610   -6.4960   -1.2610 ho        1 MOL      0.371917
    196 O32         5.7350   -3.2150    2.4680 oh        1 MOL     -0.797529
    197 H91         6.3860   -2.7100    2.9560 ho        1 MOL      0.371917
    198 H92         4.8940   -2.8250    2.7020 ho        1 MOL      0.371917
@<TRIPOS>BOND
     1    1    2 1   
     2    1    4 1   
     3    1    5 1   
     4    1    6 1   
     5    2    3 2   
     6    2    7 1   
     7    7    8 1   
     8    7   15 1   
     9    8    9 1   
    10    8   11 1   
    11    8   16 1   
    12    9   10 2   
    13    9   19 1   
    14   11   12 1   
    15   11   17 1   
    16   11   18 1   
    17   12   13 1   
    18   12   14 1   
    19   19   20 1   
    20   19   27 1   
    21   20   21 1   
    22   20   23 1   
    23   20   28 1   
    24   21   22 2   
    25   21   38 1   
    26   23   24 1   
    27   23   25 1   
    28   23   29 1   
    29   24   26 1   
    30   24   30 1   
    31   24   31 1   
    32   25   32 1   
    33   25   33 1   
    34   25   34 1   
    35   26   35 1   
    36   26   36 1   
    37   26   37 1   
    38   38   39 1   
    39   38   46 1   
    40   39   40 1   
    41   39   42 1   
    42   39   47 1   
    43   40   41 2   
    44   40   50 1   
    45   42   43 1   
    46   42   48 1   
    47   42   49 1   
    48   43   44 1   
    49   43   45 1   
    50   50   51 1   
    51   50   54 1   
    52   51   52 1   
    53   51   55 1   
    54   51   56 1   
    55   52   53 2   
    56   52   57 1   
    57   57   58 1   
    58   57   65 1   
    59   58   59 1   
    60   58   61 1   
    61   58   66 1   
    62   59   60 2   
    63   59   69 1   
    64   61   62 1   
    65   61   67 1   
    66   61   68 1   
    67   62   63 1   
    68   62   64 1   
    69   69   70 1   
    70   69   73 1   
    71   70   71 1   
    72   70   74 1   
    73   70   75 1   
    74   71   72 2   
    75   71   76 1   
    76   76   77 1   
    77   76   85 1   
    78   77   78 1   
    79   77   80 1   
    80   77   86 1   
    81   78   79 2   
    82   78   93 1   
    83   80   81 1   
    84   80   87 1   
    85   80   88 1   
    86   81   82 1   
    87   81   89 1   
    88   81   90 1   
    89   82   83 1   
    90   82   84 2   
    91   83   91 1   
    92   83   92 1   
    93   93   94 1   
    94   93  100 1   
    95   94   95 1   
    96   94   97 1   
    97   94  101 1   
    98   95   96 2   
    99   95  109 1   
   100   97   98 1   
   101   97   99 1   
   102   97  102 1   
   103   98  103 1   
   104   98  104 1   
   105   98  105 1   
   106   99  106 1   
   107   99  107 1   
   108   99  108 1   
   109  109  110 1   
   110  109  117 1   
   111  110  111 1   
   112  110  113 1   
   113  110  118 1   
   114  111  112 2   
   115  111  123 1   
   116  113  114 1   
   117  113  119 1   
   118  113  120 1   
   119  114  115 1   
   120  114  116 2   
   121  115  121 1   
   122  115  122 1   
   123  123  124 1   
   124  123  135 1   
   125  124  125 1   
   126  124  127 1   
   127  124  136 1   
   128  125  126 2   
   129  125  144 1   
   130  127  128 1   
   131  127  137 1   
   132  127  138 1   
   133  128  129 ar  
   134  128  130 ar  
   135  129  131 ar  
   136  129  139 1   
   137  130  132 ar  
   138  130  140 1   
   139  131  133 ar  
   140  131  141 1   
   141  132  133 ar  
   142  132  142 1   
   143  133  134 1   
   144  134  143 1   
   145  144  145 1   
   146  144  153 1   
   147  145  146 1   
   148  145  148 1   
   149  145  154 1   
   150  146  147 2   
   151  146  159 1   
   152  148  149 1   
   153  148  155 1   
   154  148  156 1   
   155  149  150 1   
   156  149  157 1   
   157  149  158 1   
   158  150  151 1   
   159  150  152 1   
   160  159  160 1   
   161  159  168 1   
   162  160  161 1   
   163  160  163 1   
   164  160  169 1   
   165  161  162 2   
   166  161  174 1   
   167  163  164 1   
   168  163  170 1   
   169  163  171 1   
   170  164  165 1   
   171  164  172 1   
   172  164  173 1   
   173  165  166 1   
   174  165  167 1   
   175  174  175 1   
   176  174  179 1   
   177  175  176 1   
   178  175  177 1   
   179  175  178 1   
   180  181  182 1   
   181  181  183 1   
   182  184  185 1   
   183  184  186 1   
   184  187  188 1   
   185  187  189 1   
   186  190  191 1   
   187  190  192 1   
   188  193  194 1   
   189  193  195 1   
   190  196  197 1   
   191  196  198 1   
@<TRIPOS>SUBSTRUCTURE
     1 MOL         1 TEMP              0 ****  ****    0 ROOT
