@<TRIPOS>MOLECULE
MOL
  191   184     1     0     0
SMALL
resp


@<TRIPOS>ATOM
      1 C1         -5.8930   -0.6400    3.8950 c3        1 MOL     -0.423221
      2 C2         -6.0460   -1.2180    2.5040 c         1 MOL      0.534100
      3 O1         -5.3250   -0.7370    1.6440 o         1 MOL     -0.435830
      4 H1         -6.0410   -1.4280    4.6340 hc        1 MOL      0.113998
      5 H2         -4.8930   -0.2210    4.0080 hc        1 MOL      0.113998
      6 H3         -6.6350    0.1430    4.0470 hc        1 MOL      0.113998
      7 N1         -7.0390   -2.1090    2.2240 n         1 MOL     -0.514107
      8 C3         -7.3950   -2.6850    0.9710 c3        1 MOL      0.053837
      9 C4         -7.4490   -1.7400   -0.2480 c         1 MOL      0.435616
     10 O2         -6.9890   -2.0660   -1.3230 o         1 MOL     -0.462887
     11 C5         -6.4790   -3.9660    0.7680 c3        1 MOL     -0.039997
     12 C6         -7.0510   -5.0330   -0.1900 c         1 MOL      0.622102
     13 O3         -6.3480   -6.0790   -0.4530 o         1 MOL     -0.619246
     14 O4         -8.2750   -4.9860   -0.4390 o         1 MOL     -0.619246
     15 H4         -7.5840   -2.3600    3.0260 hn        1 MOL      0.317192
     16 H5         -8.4350   -2.9780    1.1360 h1        1 MOL      0.045974
     17 H6         -6.2740   -4.4960    1.7000 hc        1 MOL      0.029461
     18 H7         -5.4960   -3.6570    0.3940 hc        1 MOL      0.029461
     19 N2         -8.0090   -0.5650    0.0330 n         1 MOL     -0.352822
     20 C7         -8.3530    0.5520   -0.8600 c3        1 MOL      0.004131
     21 C8         -7.2000    1.4630   -1.2360 c         1 MOL      0.506368
     22 O5         -7.4130    2.3960   -2.0160 o         1 MOL     -0.564131
     23 C9         -9.6220    1.1500   -0.2200 c3        1 MOL     -0.116215
     24 C10        -9.2250    2.2010    0.7860 c3        1 MOL     -0.058842
     25 C11       -10.5230    2.6800    1.4650 c3        1 MOL      0.021414
     26 C12       -10.2670    3.7810    2.4940 c3        1 MOL      0.021743
     27 N3        -10.1360    5.1570    1.9910 n4        1 MOL     -0.166230
     28 H8         -8.1970   -0.5020    1.0190 hn        1 MOL      0.223271
     29 H9         -8.6200    0.0880   -1.8020 h1        1 MOL      0.148734
     30 H10       -10.2320    0.3880    0.2620 hc        1 MOL      0.059059
     31 H11       -10.2360    1.5710   -1.0140 hc        1 MOL      0.059059
     32 H12        -8.6470    3.0280    0.3620 hc        1 MOL      0.043777
     33 H13        -8.6100    1.6890    1.5300 hc        1 MOL      0.043777
     34 H14       -11.0060    1.8320    1.9430 hc        1 MOL      0.041487
     35 H15       -11.2820    3.0040    0.7480 hc        1 MOL      0.041487
     36 H16        -9.3510    3.5750    3.0450 hx        1 MOL      0.042379
     37 H17       -11.0800    3.7550    3.2080 hx        1 MOL      0.042379
     38 H18        -9.8600    5.7070    2.7900 hn        1 MOL      0.196292
     39 H19        -9.3320    5.2860    1.3970 hn        1 MOL      0.196292
     40 H20       -11.0620    5.4630    1.7050 hn        1 MOL      0.196292
     41 N4         -5.9780    1.1770   -0.7350 n         1 MOL     -0.375109
     42 C13        -4.7530    1.8930   -0.9740 c3        1 MOL     -0.015897
     43 C14        -4.2870    1.5010   -2.4030 c         1 MOL      0.656123
     44 O6         -4.3410    0.3440   -2.7560 o         1 MOL     -0.463396
     45 C15        -3.7120    1.5300    0.0740 c3        1 MOL     -0.038181
     46 C16        -2.4150    2.2670   -0.2230 c         1 MOL      0.633359
     47 O7         -2.2880    3.4490    0.1830 o         1 MOL     -0.746460
     48 O8         -1.5050    1.8460   -0.9680 o         1 MOL     -0.746460
     49 H21        -5.9150    0.4920    0.0110 hn        1 MOL      0.218846
     50 H22        -4.9150    2.9690   -0.8740 h1        1 MOL      0.035971
     51 H23        -3.6510    0.4430    0.0920 hc        1 MOL      0.017912
     52 H24        -4.0230    1.7980    1.0760 hc        1 MOL      0.017912
     53 N5         -3.7470    2.4850   -3.1620 n         1 MOL     -0.412911
     54 C17        -3.2430    2.3860   -4.4760 c3        1 MOL     -0.008500
     55 C18        -2.2550    1.1520   -4.7230 c         1 MOL      0.411103
     56 O9         -2.4320    0.4490   -5.7140 o         1 MOL     -0.495014
     57 H25        -3.6990    3.4330   -2.8220 hn        1 MOL      0.268132
     58 H26        -2.6230    3.2280   -4.7720 h1        1 MOL      0.059931
     59 H27        -4.0860    2.2720   -5.1490 h1        1 MOL      0.059931
     60 N6         -1.3620    0.8640   -3.7820 n         1 MOL     -0.258488
     61 C19        -0.4120   -0.2790   -3.7500 c3        1 MOL     -0.318623
     62 C20        -1.0760   -1.5750   -3.1620 c         1 MOL      0.660462
     63 O10        -0.5350   -2.6740   -3.3160 o         1 MOL     -0.548829
     64 C21         0.8090    0.1400   -2.9330 c3        1 MOL     -0.159240
     65 C22         1.3400    1.5400   -3.1730 c         1 MOL      0.661861
     66 N7          1.8380    1.7880   -4.3430 n         1 MOL     -0.696407
     67 O11         1.1970    2.4900   -2.4170 o         1 MOL     -0.675187
     68 H28        -1.2810    1.5180   -3.0130 hn        1 MOL      0.251537
     69 H29        -0.1210   -0.4640   -4.7930 h1        1 MOL      0.170991
     70 H30         1.5940   -0.5830   -3.1410 hc        1 MOL      0.109968
     71 H31         0.6330    0.0820   -1.8560 hc        1 MOL      0.109968
     72 H32         1.8440    1.0590   -5.0340 hn        1 MOL      0.355065
     73 H33         1.8950    2.7730   -4.5660 hn        1 MOL      0.355065
     74 N8         -2.2550   -1.4120   -2.4840 n         1 MOL     -0.366845
     75 C23        -3.0230   -2.5740   -1.8830 c3        1 MOL     -0.069573
     76 C24        -2.6430   -3.0630   -0.4920 c         1 MOL      0.363434
     77 O12        -3.0280   -4.1850   -0.1260 o         1 MOL     -0.471326
     78 H34        -2.7290   -0.5420   -2.6880 hn        1 MOL      0.280240
     79 H35        -2.9070   -3.4190   -2.5700 h1        1 MOL      0.122741
     80 H36        -4.0930   -2.4200   -1.9350 h1        1 MOL      0.122741
     81 N9         -1.8980   -2.2250    0.2380 n         1 MOL     -0.189846
     82 C25        -1.0850   -2.4690    1.3970 c3        1 MOL     -0.084713
     83 C26         0.2920   -1.7500    1.4000 c         1 MOL      0.188045
     84 O13         0.4160   -0.7140    0.7620 o         1 MOL     -0.419961
     85 C27        -1.9970   -2.0430    2.5720 c3        1 MOL     -0.054048
     86 C28        -1.3300   -1.3650    3.7630 ca        1 MOL     -0.100345
     87 C29        -1.0530   -2.1390    4.9150 ca        1 MOL     -0.029395
     88 C30        -0.8850   -0.0470    3.6880 ca        1 MOL     -0.029395
     89 C31        -0.3030   -1.5890    5.9600 ca        1 MOL     -0.385571
     90 C32        -0.2750    0.5640    4.8040 ca        1 MOL     -0.385571
     91 C33         0.1040   -0.2310    5.8970 ca        1 MOL      0.430119
     92 O14         0.7560    0.3110    7.0180 oh        1 MOL     -0.452556
     93 H37        -1.7890   -1.3170   -0.1840 hn        1 MOL      0.212057
     94 H38        -0.9170   -3.5260    1.5700 h1        1 MOL      0.087303
     95 H39        -2.3920   -3.0050    2.9110 hc        1 MOL      0.097108
     96 H40        -2.9100   -1.4750    2.3670 hc        1 MOL      0.097108
     97 H41        -1.3830   -3.1700    4.9090 ha        1 MOL      0.102721
     98 H42        -1.0800    0.6100    2.8490 ha        1 MOL      0.102721
     99 H43        -0.0020   -2.1820    6.8120 ha        1 MOL      0.180835
    100 H44         0.0480    1.5870    4.6370 ha        1 MOL      0.180835
    101 H45         0.8870    1.2210    6.7590 ho        1 MOL      0.316676
    102 N10         1.2890   -2.2960    2.0800 n         1 MOL     -0.019607
    103 C34         2.6970   -1.8880    1.7450 c3        1 MOL     -0.110431
    104 C35         2.9930   -2.2140    0.2630 c         1 MOL      0.465861
    105 O15         3.4490   -1.3490   -0.5380 o         1 MOL     -0.534375
    106 C36         3.5980   -2.6540    2.7060 c3        1 MOL      0.062312
    107 C37         3.3810   -2.2320    4.1940 c3        1 MOL      0.230083
    108 C38         5.0930   -2.6410    2.4410 c3        1 MOL     -0.703853
    109 C39         3.4950   -0.7330    4.5780 c3        1 MOL     -0.002605
    110 H46         1.1330   -3.1520    2.5840 hn        1 MOL      0.199704
    111 H47         2.8080   -0.8250    1.9540 h1        1 MOL      0.111416
    112 H48         3.3310   -3.7060    2.7760 hc        1 MOL     -0.014835
    113 H49         4.0350   -2.8370    4.8360 hc        1 MOL     -0.046017
    114 H50         2.3330   -2.4800    4.3700 hc        1 MOL     -0.046017
    115 H51         5.3130   -3.1540    1.4990 hc        1 MOL      0.199891
    116 H52         5.5220   -1.6320    2.4400 hc        1 MOL      0.199891
    117 H53         5.5430   -3.1760    3.2770 hc        1 MOL      0.199891
    118 H54         2.7450   -0.2880    3.9260 hc        1 MOL     -0.019097
    119 H55         3.2190   -0.6500    5.6340 hc        1 MOL     -0.019097
    120 H56         4.4760   -0.2930    4.3890 hc        1 MOL     -0.019097
    121 N11         2.6800   -3.4460   -0.2200 n         1 MOL     -0.184809
    122 C40         2.6340   -3.5720   -1.6890 c3        1 MOL     -0.020417
    123 C41         4.0710   -3.6870   -2.2510 c         1 MOL      0.286360
    124 O16         4.3630   -3.0620   -3.2690 o         1 MOL     -0.470114
    125 C42         1.9030   -4.8400   -2.1950 c3        1 MOL      0.268707
    126 O17         0.6230   -4.9020   -1.8010 oh        1 MOL     -0.554713
    127 H57         2.1730   -4.0140    0.4510 hn        1 MOL      0.180451
    128 H58         2.1630   -2.7210   -2.1870 h1        1 MOL      0.096283
    129 H59         2.4330   -5.7070   -1.7980 h1        1 MOL      0.016160
    130 H60         1.8930   -4.8620   -3.2790 h1        1 MOL      0.016160
    131 H61         0.2080   -4.1590   -2.2430 ho        1 MOL      0.369947
    132 N12         5.0150   -4.2630   -1.4900 n         1 MOL     -0.317873
    133 C43         6.4990   -4.2020   -1.6740 c3        1 MOL      0.133778
    134 C44         7.0660   -2.7630   -1.6670 c         1 MOL      0.546108
    135 O18         8.2940   -2.5840   -1.8820 o         1 MOL     -0.573182
    136 C45         6.7730   -4.9430   -2.9850 c3        1 MOL     -0.517617
    137 H62         4.7410   -4.7620   -0.6570 hn        1 MOL      0.218040
    138 H63         7.0040   -4.6900   -0.8410 h1        1 MOL      0.066254
    139 H64         6.5160   -4.2610   -3.7870 hc        1 MOL      0.157767
    140 H65         7.8510   -5.0350   -3.0820 hc        1 MOL      0.157767
    141 H66         6.2280   -5.8730   -3.0920 hc        1 MOL      0.157767
    142 N13         6.2930   -1.7310   -1.3160 n         1 MOL     -0.440157
    143 C46         6.8310   -0.3870   -1.5230 c3        1 MOL      0.215848
    144 C47         7.4910    0.1810   -0.2540 c         1 MOL      0.363337
    145 O19         7.0290    0.0880    0.8780 o         1 MOL     -0.423872
    146 C48         5.7780    0.4770   -2.1230 c3        1 MOL     -0.123480
    147 H67         5.3040   -1.8220   -1.1690 hn        1 MOL      0.256186
    148 H68         7.6010   -0.4070   -2.2970 h1        1 MOL      0.047006
    149 H69         6.1070    1.3420   -2.7050 hc        1 MOL      0.037842
    150 H70         5.1180   -0.1430   -2.7220 hc        1 MOL      0.037842
    151 H71         5.1370    0.9180   -1.3590 hc        1 MOL      0.037842
    152 N14         8.6420    0.9230   -0.4670 n         1 MOL     -0.471659
    153 C49         9.4140    1.8160    0.4960 c3        1 MOL     -0.079383
    154 C50         9.8560    1.2070    1.7800 c         1 MOL      0.476133
    155 O20         9.8010    1.9370    2.7810 o         1 MOL     -0.502690
    156 C51         8.5150    3.0200    0.7270 c3        1 MOL      0.102355
    157 C52         8.5200    3.9900   -0.4580 c3        1 MOL     -0.107915
    158 C53         7.5870    5.1470   -0.2160 c         1 MOL      0.644927
    159 O21         7.9810    6.2100    0.2950 o         1 MOL     -0.681398
    160 O22         6.4510    4.9740   -0.7230 o         1 MOL     -0.681398
    161 H72         8.9930    0.9250   -1.4110 hn        1 MOL      0.293400
    162 H73        10.3100    2.1250   -0.0400 h1        1 MOL      0.090017
    163 H74         8.8080    3.7020    1.5250 hc        1 MOL      0.023256
    164 H75         7.4970    2.7940    1.0400 hc        1 MOL      0.023256
    165 H76         8.1890    3.4800   -1.3680 hc        1 MOL     -0.004653
    166 H77         9.5070    4.3740   -0.7060 hc        1 MOL     -0.004653
    167 N15        10.2840   -0.0570    1.7910 n         1 MOL     -0.324008
    168 C54        10.4770   -0.8470    3.0000 c3        1 MOL     -0.120267
    169 H78         9.9140   -0.3990    3.8200 h1        1 MOL      0.080650
    170 H79        10.1240   -1.8640    2.8300 h1        1 MOL      0.080650
    171 H80        11.5370   -0.8670    3.2560 h1        1 MOL      0.080650
    172 H81        10.2940   -0.5550    0.9110 hn        1 MOL      0.264674
    173 Ca1         0.2810    3.7430   -0.1940 Ca        1 MOL      1.780723
    174 O23         2.2200    5.0500   -1.6480 oh        1 MOL     -0.819112
    175 H82         3.1300    4.7490   -1.5570 ho        1 MOL      0.409241
    176 H83         2.2070    5.5250   -2.4790 ho        1 MOL      0.409241
    177 O24        -1.1390    4.9470   -2.1810 oh        1 MOL     -0.819112
    178 H84        -0.8170    4.6710   -3.0380 ho        1 MOL      0.409241
    179 H85        -1.0970    5.9020   -2.2020 ho        1 MOL      0.409241
    180 O25         1.5860    1.6340    0.8280 oh        1 MOL     -0.819112
    181 H86         1.1130    0.8250    1.0090 ho        1 MOL      0.409241
    182 H87         2.5030    1.3730    0.7750 ho        1 MOL      0.409241
    183 O26        -0.3420    3.4600    2.4470 oh        1 MOL     -0.819112
    184 H88        -1.2860    3.5140    2.5900 ho        1 MOL      0.409241
    185 H89         0.0490    3.7840    3.2550 ho        1 MOL      0.409241
    186 O27        -0.8980    6.1060    0.5510 oh        1 MOL     -0.819112
    187 H90        -0.8750    6.9580    0.1130 ho        1 MOL      0.409241
    188 H91        -1.8030    5.8070    0.4480 ho        1 MOL      0.409241
    189 O28         2.3240    4.5010    1.5830 oh        1 MOL     -0.819112
    190 H92         3.2070    4.1850    1.4100 ho        1 MOL      0.409241
    191 H93         2.2750    4.5670    2.5350 ho        1 MOL      0.409241
@<TRIPOS>BOND
     1    1    2 1   
     2    1    4 1   
     3    1    5 1   
     4    1    6 1   
     5    2    3 2   
     6    2    7 1   
     7    7    8 1   
     8    7   15 1   
     9    8    9 1   
    10    8   11 1   
    11    8   16 1   
    12    9   10 2   
    13    9   19 1   
    14   11   12 1   
    15   11   17 1   
    16   11   18 1   
    17   12   13 1   
    18   12   14 1   
    19   19   20 1   
    20   19   28 1   
    21   20   21 1   
    22   20   23 1   
    23   20   29 1   
    24   21   22 2   
    25   21   41 1   
    26   23   24 1   
    27   23   30 1   
    28   23   31 1   
    29   24   25 1   
    30   24   32 1   
    31   24   33 1   
    32   25   26 1   
    33   25   34 1   
    34   25   35 1   
    35   26   27 1   
    36   26   36 1   
    37   26   37 1   
    38   27   38 1   
    39   27   39 1   
    40   27   40 1   
    41   41   42 1   
    42   41   49 1   
    43   42   43 1   
    44   42   45 1   
    45   42   50 1   
    46   43   44 2   
    47   43   53 1   
    48   45   46 1   
    49   45   51 1   
    50   45   52 1   
    51   46   47 1   
    52   46   48 1   
    53   53   54 1   
    54   53   57 1   
    55   54   55 1   
    56   54   58 1   
    57   54   59 1   
    58   55   56 2   
    59   55   60 1   
    60   60   61 1   
    61   60   68 1   
    62   61   62 1   
    63   61   64 1   
    64   61   69 1   
    65   62   63 2   
    66   62   74 1   
    67   64   65 1   
    68   64   70 1   
    69   64   71 1   
    70   65   66 1   
    71   65   67 2   
    72   66   72 1   
    73   66   73 1   
    74   74   75 1   
    75   74   78 1   
    76   75   76 1   
    77   75   79 1   
    78   75   80 1   
    79   76   77 2   
    80   76   81 1   
    81   81   82 1   
    82   81   93 1   
    83   82   83 1   
    84   82   85 1   
    85   82   94 1   
    86   83   84 2   
    87   83  102 1   
    88   85   86 1   
    89   85   95 1   
    90   85   96 1   
    91   86   87 ar  
    92   86   88 ar  
    93   87   89 ar  
    94   87   97 1   
    95   88   90 ar  
    96   88   98 1   
    97   89   91 ar  
    98   89   99 1   
    99   90   91 ar  
   100   90  100 1   
   101   91   92 1   
   102   92  101 1   
   103  102  103 1   
   104  102  110 1   
   105  103  104 1   
   106  103  106 1   
   107  103  111 1   
   108  104  105 2   
   109  104  121 1   
   110  106  107 1   
   111  106  108 1   
   112  106  112 1   
   113  107  109 1   
   114  107  113 1   
   115  107  114 1   
   116  108  115 1   
   117  108  116 1   
   118  108  117 1   
   119  109  118 1   
   120  109  119 1   
   121  109  120 1   
   122  121  122 1   
   123  121  127 1   
   124  122  123 1   
   125  122  125 1   
   126  122  128 1   
   127  123  124 2   
   128  123  132 1   
   129  125  126 1   
   130  125  129 1   
   131  125  130 1   
   132  126  131 1   
   133  132  133 1   
   134  132  137 1   
   135  133  134 1   
   136  133  136 1   
   137  133  138 1   
   138  134  135 2   
   139  134  142 1   
   140  136  139 1   
   141  136  140 1   
   142  136  141 1   
   143  142  143 1   
   144  142  147 1   
   145  143  144 1   
   146  143  146 1   
   147  143  148 1   
   148  144  145 2   
   149  144  152 1   
   150  146  149 1   
   151  146  150 1   
   152  146  151 1   
   153  152  153 1   
   154  152  161 1   
   155  153  154 1   
   156  153  156 1   
   157  153  162 1   
   158  154  155 2   
   159  154  167 1   
   160  156  157 1   
   161  156  163 1   
   162  156  164 1   
   163  157  158 1   
   164  157  165 1   
   165  157  166 1   
   166  158  159 1   
   167  158  160 1   
   168  167  168 1   
   169  167  172 1   
   170  168  169 1   
   171  168  170 1   
   172  168  171 1   
   173  174  175 1   
   174  174  176 1   
   175  177  178 1   
   176  177  179 1   
   177  180  181 1   
   178  180  182 1   
   179  183  184 1   
   180  183  185 1   
   181  186  187 1   
   182  186  188 1   
   183  189  190 1   
   184  189  191 1   
@<TRIPOS>SUBSTRUCTURE
     1 MOL         1 TEMP              0 ****  ****    0 ROOT
