@<TRIPOS>MOLECULE
MOL
  189   185     1     0     0
SMALL
resp


@<TRIPOS>ATOM
      1 C1         11.5980    6.2180   -1.5520 c3        1 MOL     -0.424602
      2 C2         11.3000    5.0690   -0.5840 c         1 MOL      0.844936
      3 O1         12.1360    4.6660    0.2140 o         1 MOL     -0.602576
      4 H1         12.1230    7.0120   -1.0210 hc        1 MOL      0.118570
      5 H2         12.2220    5.8540   -2.3680 hc        1 MOL      0.118570
      6 H3         10.6620    6.6070   -1.9540 hc        1 MOL      0.118570
      7 N1         10.0760    4.5810   -0.5650 n         1 MOL     -0.598506
      8 C3          9.4860    3.8350    0.5380 c3        1 MOL     -0.334911
      9 C4          8.2660    3.0040    0.2290 c         1 MOL      0.960790
     10 O2          7.2370    3.4830   -0.0920 o         1 MOL     -0.698859
     11 C5          9.3020    4.8800    1.6910 c3        1 MOL     -0.152281
     12 C6          8.5410    6.1570    1.4180 c         1 MOL      0.806731
     13 O3          7.2810    6.1150    1.4480 o         1 MOL     -0.757903
     14 O4          9.1260    7.1940    1.0600 o         1 MOL     -0.757903
     15 H4          9.3350    4.9100   -1.1620 hn        1 MOL      0.277765
     16 H5         10.1790    3.0560    0.8160 h1        1 MOL      0.151642
     17 H6         10.3030    5.1670    2.0120 hc        1 MOL      0.091792
     18 H7          8.7470    4.3510    2.4690 hc        1 MOL      0.091792
     19 N2          8.3700    1.6640    0.3140 n         1 MOL     -0.599219
     20 C7          7.4070    0.6670   -0.0800 c3        1 MOL      0.036220
     21 C8          6.4670    0.5330    1.0590 c         1 MOL      0.724127
     22 O5          6.8870    0.2130    2.1850 o         1 MOL     -0.547353
     23 C9          7.9770   -0.6500   -0.4800 c3        1 MOL     -0.283650
     24 C10         7.0050   -1.4560   -1.3360 c3        1 MOL      0.199961
     25 C11         7.5460   -2.7560   -1.9730 c3        1 MOL      0.030608
     26 C12         6.5420   -3.2570   -2.9660 c3        1 MOL      0.152573
     27 N3          6.9870   -4.5890   -3.5820 n4        1 MOL     -0.506442
     28 H8          9.2490    1.2670    0.6390 hn        1 MOL      0.317087
     29 H9          6.8640    1.0640   -0.9310 h1        1 MOL      0.052817
     30 H10         8.3440   -1.1730    0.3930 hc        1 MOL      0.094543
     31 H11         8.8850   -0.3940   -1.0280 hc        1 MOL      0.094543
     32 H12         6.7060   -0.8250   -2.1700 hc        1 MOL     -0.024376
     33 H13         6.1500   -1.7010   -0.7150 hc        1 MOL     -0.024376
     34 H14         7.8000   -3.4990   -1.2140 hc        1 MOL      0.003072
     35 H15         8.3900   -2.3770   -2.5560 hc        1 MOL      0.003072
     36 H16         6.3810   -2.5120   -3.7430 hx        1 MOL      0.052921
     37 H17         5.5780   -3.4740   -2.5030 hx        1 MOL      0.052921
     38 H18         7.7970   -4.4690   -4.1750 hn        1 MOL      0.323936
     39 H19         7.1890   -5.3130   -2.8980 hn        1 MOL      0.323936
     40 H20         6.1970   -4.8860   -4.1380 hn        1 MOL      0.323936
     41 N4          5.1530    0.6250    0.7820 n         1 MOL     -0.511488
     42 C13         4.0840    0.4410    1.7660 c3        1 MOL      0.065581
     43 C14         2.7370    0.1430    1.0220 c         1 MOL      0.565132
     44 O6          2.3970    0.6970    0.0290 o         1 MOL     -0.489489
     45 C15         3.9890    1.6990    2.7480 c3        1 MOL     -0.201588
     46 C16         4.1380    2.9750    2.0010 c         1 MOL      0.746226
     47 O7          3.1610    3.4150    1.2940 o         1 MOL     -0.762251
     48 O8          5.1940    3.6640    2.2350 o         1 MOL     -0.762251
     49 H21         4.8590    0.8780   -0.1500 hn        1 MOL      0.171012
     50 H22         4.3340   -0.4000    2.4140 h1        1 MOL      0.054504
     51 H23         4.7440    1.5320    3.5190 hc        1 MOL      0.096869
     52 H24         2.9960    1.8140    3.1750 hc        1 MOL      0.096869
     53 N5          1.9050   -0.7680    1.4720 n         1 MOL     -0.365292
     54 C17         2.0240   -1.7220    2.5430 c3        1 MOL     -0.029042
     55 C18         2.5040   -3.1830    2.2780 c         1 MOL      0.546705
     56 O9          3.1400   -3.5640    1.3580 o         1 MOL     -0.525610
     57 H25         1.3200   -1.0760    0.7070 hn        1 MOL      0.209816
     58 H26         1.0140   -1.8180    2.9610 h1        1 MOL      0.048138
     59 H27         2.6250   -1.3120    3.3540 h1        1 MOL      0.048138
     60 N6          2.3280   -3.9950    3.3300 n         1 MOL     -0.316923
     61 C19         2.9480   -5.2880    3.3380 c3        1 MOL      0.028233
     62 C20         2.2430   -6.3010    2.4050 c         1 MOL      0.438435
     63 O10         2.7760   -7.3420    2.1690 o         1 MOL     -0.535403
     64 C21         3.1040   -5.8620    4.7250 c3        1 MOL     -0.216037
     65 C22         1.8760   -6.0110    5.6030 c         1 MOL      0.767143
     66 O11         0.7730   -6.1750    5.0390 o         1 MOL     -0.697894
     67 O12         2.0290   -5.9200    6.8500 o         1 MOL     -0.697894
     68 H28         1.9590   -3.6080    4.1890 hn        1 MOL      0.249771
     69 H29         3.9430   -5.1600    2.9280 h1        1 MOL      0.064788
     70 H30         3.7880   -5.1490    5.1940 hc        1 MOL      0.054986
     71 H31         3.6030   -6.8290    4.6570 hc        1 MOL      0.054986
     72 N7          1.0210   -6.0800    1.9000 n         1 MOL     -0.118731
     73 C23         0.3100   -6.7850    0.8940 c3        1 MOL     -0.042278
     74 C24         0.3790   -6.1390   -0.4970 c         1 MOL      0.360442
     75 O13        -0.1540   -6.6840   -1.4470 o         1 MOL     -0.530727
     76 H32         0.5890   -5.2140    2.1850 hn        1 MOL      0.111889
     77 H33        -0.7320   -6.8340    1.2250 h1        1 MOL      0.089902
     78 H34         0.5570   -7.8500    0.8910 h1        1 MOL      0.089902
     79 N8          1.1600   -5.0610   -0.6210 n         1 MOL      0.032922
     80 C25         1.4430   -4.3110   -1.8600 c3        1 MOL      0.031749
     81 C26         1.0220   -2.7660   -1.7920 c         1 MOL      0.294270
     82 O14         0.8850   -2.2800   -0.6880 o         1 MOL     -0.426622
     83 C27         2.9510   -4.1890   -2.0790 c3        1 MOL      0.595262
     84 C28         3.6680   -5.4980   -1.7340 c3        1 MOL     -0.651470
     85 O15         3.2750   -4.0320   -3.4310 oh        1 MOL     -0.741504
     86 H35         1.6280   -4.6820    0.1860 hn        1 MOL     -0.064238
     87 H36         0.9550   -4.8010   -2.6990 h1        1 MOL      0.003215
     88 H37         3.2870   -3.3690   -1.4490 h1        1 MOL     -0.004680
     89 H38         2.9150   -4.7800   -3.9120 ho        1 MOL      0.414682
     90 H39         3.7080   -5.5900   -0.6490 hc        1 MOL      0.159877
     91 H40         3.1330   -6.2580   -2.2980 hc        1 MOL      0.159877
     92 H41         4.6920   -5.4300   -2.1020 hc        1 MOL      0.159877
     93 N9          0.8850   -2.0750   -2.9040 n         1 MOL     -0.235306
     94 C29         0.4900   -0.6500   -2.9290 c3        1 MOL      0.005247
     95 C30        -0.7820   -0.2970   -2.1070 c         1 MOL      0.372159
     96 O16        -0.9660    0.8580   -1.7280 o         1 MOL     -0.470035
     97 C31         0.2660   -0.1450   -4.3790 c3        1 MOL      0.155154
     98 C32         1.5550   -0.3770   -5.3180 c3        1 MOL     -0.088198
     99 C33        -0.1100    1.3440   -4.4860 c3        1 MOL     -0.193573
    100 C34         2.9340   -0.0260   -4.6510 c3        1 MOL     -0.062264
    101 H42         1.0680   -2.5200   -3.7940 hn        1 MOL      0.221616
    102 H43         1.2180   -0.0740   -2.3560 h1        1 MOL      0.079358
    103 H44        -0.5520   -0.6960   -4.8330 hc        1 MOL     -0.009411
    104 H45         1.3250    0.2360   -6.1910 hc        1 MOL      0.031414
    105 H46         1.6170   -1.4090   -5.6530 hc        1 MOL      0.031414
    106 H47        -1.0950    1.5580   -4.0660 hc        1 MOL      0.061984
    107 H48         0.5600    2.0110   -3.9510 hc        1 MOL      0.061984
    108 H49        -0.1950    1.6330   -5.5270 hc        1 MOL      0.061984
    109 H50         3.6560    0.1880   -5.4370 hc        1 MOL      0.002319
    110 H51         2.7490    0.8880   -4.1050 hc        1 MOL      0.002319
    111 H52         3.2920   -0.8140   -3.9860 hc        1 MOL      0.002319
    112 N10        -1.7000   -1.2790   -1.9170 n         1 MOL     -0.288966
    113 C35        -2.8380   -1.3080   -0.9440 c3        1 MOL     -0.087590
    114 C36        -4.0590   -1.9180   -1.5450 c         1 MOL      0.553308
    115 O17        -3.9210   -2.7880   -2.3880 o         1 MOL     -0.529410
    116 C37        -2.4620   -2.0140    0.3670 c3        1 MOL      0.416147
    117 C38        -2.0160   -3.4290    0.1550 c3        1 MOL     -0.321471
    118 O18        -1.3680   -1.3510    1.0170 oh        1 MOL     -0.648009
    119 H53        -1.5480   -2.1020   -2.4810 hn        1 MOL      0.184290
    120 H54        -2.9930   -0.2560   -0.7170 h1        1 MOL      0.111278
    121 H55        -3.3450   -2.1670    0.9790 h1        1 MOL      0.023116
    122 H56        -0.5600   -1.6330    0.5840 ho        1 MOL      0.436218
    123 H57        -2.8910   -4.0780    0.1280 hc        1 MOL      0.075249
    124 H58        -1.3840   -3.5460   -0.7220 hc        1 MOL      0.075249
    125 H59        -1.4620   -3.8070    1.0220 hc        1 MOL      0.075249
    126 N11        -5.2930   -1.6050   -1.1350 n         1 MOL     -0.474959
    127 C39        -6.5420   -2.2450   -1.6160 c3        1 MOL      0.071053
    128 C40        -7.6810   -1.2370   -1.8290 c         1 MOL      0.512783
    129 O19        -8.2810   -1.2420   -2.9030 o         1 MOL     -0.535888
    130 C41        -7.0220   -3.3050   -0.5810 c3        1 MOL      0.179535
    131 C42        -8.3460   -3.8690   -1.0670 c3        1 MOL     -0.325533
    132 O20        -7.0740   -2.8280    0.7970 oh        1 MOL     -0.619466
    133 H60        -5.3360   -0.8070   -0.5180 hn        1 MOL      0.247818
    134 H61        -6.3160   -2.6590   -2.6000 h1        1 MOL      0.102870
    135 H62        -6.2610   -4.0900   -0.6300 h1        1 MOL      0.069158
    136 H63        -7.1840   -3.5850    1.3840 ho        1 MOL      0.426541
    137 H64        -8.5370   -4.8750   -0.6940 hc        1 MOL      0.089958
    138 H65        -9.1410   -3.2200   -0.6850 hc        1 MOL      0.089958
    139 H66        -8.4190   -3.9550   -2.1530 hc        1 MOL      0.089958
    140 N12        -8.0800   -0.4630   -0.7770 n         1 MOL     -0.292607
    141 C43        -9.0280    0.6270   -0.8930 c3        1 MOL     -0.111238
    142 C44        -8.5920    1.6510    0.1940 c         1 MOL      0.404069
    143 O21        -7.8910    1.3600    1.1600 o         1 MOL     -0.486689
    144 C45       -10.5620    0.0150   -0.6830 c3        1 MOL     -0.064475
    145 C46       -11.6440    1.0000   -0.1210 c3        1 MOL     -0.093158
    146 C47       -13.0000    0.2740   -0.2050 c3        1 MOL     -0.021058
    147 C48       -12.9030   -0.9360    0.7580 c3        1 MOL      0.090843
    148 N13       -14.2190   -1.6130    0.8570 n4        1 MOL     -0.199776
    149 H67        -7.8190   -0.7730    0.1520 hn        1 MOL      0.253362
    150 H68        -8.9310    1.0360   -1.9030 h1        1 MOL      0.107735
    151 H69       -10.5350   -0.8910   -0.0670 hc        1 MOL      0.049224
    152 H70       -10.8180   -0.4210   -1.6550 hc        1 MOL      0.049224
    153 H71       -11.6030    1.8460   -0.8080 hc        1 MOL      0.062678
    154 H72       -11.3230    1.3420    0.8630 hc        1 MOL      0.062678
    155 H73       -13.1770   -0.0910   -1.2130 hc        1 MOL      0.033629
    156 H74       -13.8420    0.8830    0.1240 hc        1 MOL      0.033629
    157 H75       -12.5450   -0.5680    1.7200 hx        1 MOL      0.053841
    158 H76       -12.2540   -1.7150    0.3690 hx        1 MOL      0.053841
    159 H77       -14.9570   -1.0370    1.2540 hn        1 MOL      0.226082
    160 H78       -14.5650   -1.7790   -0.0830 hn        1 MOL      0.226082
    161 H79       -14.1880   -2.4970    1.3540 hn        1 MOL      0.226082
    162 N14        -9.0830    2.8970    0.0780 n         1 MOL     -0.025136
    163 C49        -8.9920    4.0010    1.0730 c3        1 MOL     -0.002907
    164 C50        -7.6100    4.7380    1.1990 c         1 MOL      0.345622
    165 O22        -7.0420    4.8790    2.3120 o         1 MOL     -0.502398
    166 C51       -10.1110    5.0050    0.8140 c3        1 MOL     -0.102848
    167 C52       -10.3220    6.1480    1.9000 c3        1 MOL     -0.303058
    168 C53       -11.5680    7.0290    1.4640 c         1 MOL      0.766199
    169 O23       -11.5190    7.5250    0.3530 o         1 MOL     -0.656695
    170 O24       -12.4290    7.3870    2.2360 o         1 MOL     -0.656695
    171 H80        -9.6400    3.0870   -0.7370 hn        1 MOL      0.149865
    172 H81        -9.3870    3.6530    2.0320 h1        1 MOL      0.069078
    173 H82       -11.0440    4.4570    0.7260 hc        1 MOL      0.020163
    174 H83        -9.9920    5.4010   -0.1950 hc        1 MOL      0.020163
    175 H84        -9.4320    6.7600    2.0000 hc        1 MOL      0.092672
    176 H85       -10.4240    5.7300    2.9010 hc        1 MOL      0.092672
    177 N15        -6.8450    5.0420    0.1450 n         1 MOL     -0.261223
    178 C54        -6.8270    4.5920   -1.3180 c3        1 MOL     -0.019583
    179 H86        -7.2320    3.5830   -1.3920 h1        1 MOL      0.041206
    180 H87        -7.4350    5.2710   -1.9160 h1        1 MOL      0.041206
    181 H88        -5.8020    4.5990   -1.6890 h1        1 MOL      0.041206
    182 H89        -6.1060    5.6850    0.4000 hn        1 MOL      0.259834
    183 Ca1         5.2370    5.2890    0.1230 Ca        1 MOL      1.712168
    184 O25         2.6310    5.3890   -0.4750 oh        1 MOL     -0.873799
    185 H90         2.3520    4.8870   -1.2490 ho        1 MOL      0.439725
    186 H91         2.1640    4.9810    0.2510 ho        1 MOL      0.439725
    187 O26         4.7340    3.1720   -1.7770 oh        1 MOL     -0.873799
    188 H92         5.3370    2.7160   -2.3530 ho        1 MOL      0.439725
    189 H93         3.8680    2.9540   -2.1180 ho        1 MOL      0.439725
@<TRIPOS>BOND
     1    1    2 1   
     2    1    4 1   
     3    1    5 1   
     4    1    6 1   
     5    2    3 2   
     6    2    7 1   
     7    7    8 1   
     8    7   15 1   
     9    8    9 1   
    10    8   11 1   
    11    8   16 1   
    12    9   10 2   
    13    9   19 1   
    14   11   12 1   
    15   11   17 1   
    16   11   18 1   
    17   12   13 1   
    18   12   14 1   
    19   19   20 1   
    20   19   28 1   
    21   20   21 1   
    22   20   23 1   
    23   20   29 1   
    24   21   22 2   
    25   21   41 1   
    26   23   24 1   
    27   23   30 1   
    28   23   31 1   
    29   24   25 1   
    30   24   32 1   
    31   24   33 1   
    32   25   26 1   
    33   25   34 1   
    34   25   35 1   
    35   26   27 1   
    36   26   36 1   
    37   26   37 1   
    38   27   38 1   
    39   27   39 1   
    40   27   40 1   
    41   41   42 1   
    42   41   49 1   
    43   42   43 1   
    44   42   45 1   
    45   42   50 1   
    46   43   44 2   
    47   43   53 1   
    48   45   46 1   
    49   45   51 1   
    50   45   52 1   
    51   46   47 1   
    52   46   48 1   
    53   53   54 1   
    54   53   57 1   
    55   54   55 1   
    56   54   58 1   
    57   54   59 1   
    58   55   56 2   
    59   55   60 1   
    60   60   61 1   
    61   60   68 1   
    62   61   62 1   
    63   61   64 1   
    64   61   69 1   
    65   62   63 2   
    66   62   72 1   
    67   64   65 1   
    68   64   70 1   
    69   64   71 1   
    70   65   66 1   
    71   65   67 1   
    72   72   73 1   
    73   72   76 1   
    74   73   74 1   
    75   73   77 1   
    76   73   78 1   
    77   74   75 2   
    78   74   79 1   
    79   79   80 1   
    80   79   86 1   
    81   80   81 1   
    82   80   83 1   
    83   80   87 1   
    84   81   82 2   
    85   81   93 1   
    86   83   84 1   
    87   83   85 1   
    88   83   88 1   
    89   84   90 1   
    90   84   91 1   
    91   84   92 1   
    92   85   89 1   
    93   93   94 1   
    94   93  101 1   
    95   94   95 1   
    96   94   97 1   
    97   94  102 1   
    98   95   96 2   
    99   95  112 1   
   100   97   98 1   
   101   97   99 1   
   102   97  103 1   
   103   98  100 1   
   104   98  104 1   
   105   98  105 1   
   106   99  106 1   
   107   99  107 1   
   108   99  108 1   
   109  100  109 1   
   110  100  110 1   
   111  100  111 1   
   112  112  113 1   
   113  112  119 1   
   114  113  114 1   
   115  113  116 1   
   116  113  120 1   
   117  114  115 2   
   118  114  126 1   
   119  116  117 1   
   120  116  118 1   
   121  116  121 1   
   122  117  123 1   
   123  117  124 1   
   124  117  125 1   
   125  118  122 1   
   126  126  127 1   
   127  126  133 1   
   128  127  128 1   
   129  127  130 1   
   130  127  134 1   
   131  128  129 2   
   132  128  140 1   
   133  130  131 1   
   134  130  132 1   
   135  130  135 1   
   136  131  137 1   
   137  131  138 1   
   138  131  139 1   
   139  132  136 1   
   140  140  141 1   
   141  140  149 1   
   142  141  142 1   
   143  141  144 1   
   144  141  150 1   
   145  142  143 2   
   146  142  162 1   
   147  144  145 1   
   148  144  151 1   
   149  144  152 1   
   150  145  146 1   
   151  145  153 1   
   152  145  154 1   
   153  146  147 1   
   154  146  155 1   
   155  146  156 1   
   156  147  148 1   
   157  147  157 1   
   158  147  158 1   
   159  148  159 1   
   160  148  160 1   
   161  148  161 1   
   162  162  163 1   
   163  162  171 1   
   164  163  164 1   
   165  163  166 1   
   166  163  172 1   
   167  164  165 2   
   168  164  177 1   
   169  166  167 1   
   170  166  173 1   
   171  166  174 1   
   172  167  168 1   
   173  167  175 1   
   174  167  176 1   
   175  168  169 1   
   176  168  170 1   
   177  177  178 1   
   178  177  182 1   
   179  178  179 1   
   180  178  180 1   
   181  178  181 1   
   182  184  185 1   
   183  184  186 1   
   184  187  188 1   
   185  187  189 1   
@<TRIPOS>SUBSTRUCTURE
     1 MOL         1 TEMP              0 ****  ****    0 ROOT
