@<TRIPOS>MOLECULE
MOL
  188   182     1     0     0
SMALL
resp


@<TRIPOS>ATOM
      1 C1          4.7330    2.2330    1.5200 c3        1 MOL     -0.230326
      2 C2          5.8320    2.0450    0.4680 c         1 MOL      0.670588
      3 O1          5.5600    1.6750   -0.7180 o         1 MOL     -0.531630
      4 H1          4.3260    3.2400    1.4430 hc        1 MOL      0.053550
      5 H2          3.9380    1.5060    1.3490 hc        1 MOL      0.053550
      6 H3          5.1530    2.0850    2.5150 hc        1 MOL      0.053550
      7 N1          7.0470    2.2560    0.8950 n         1 MOL     -0.544336
      8 C3          8.2580    2.0660    0.1800 c3        1 MOL     -0.031612
      9 C4          8.5120    0.6570   -0.3090 c         1 MOL      0.581901
     10 O2          9.2910    0.4680   -1.2140 o         1 MOL     -0.555928
     11 C5          8.5010    3.1270   -0.8920 c3        1 MOL     -0.256018
     12 C6          8.5280    4.5150   -0.1940 c         1 MOL      0.754074
     13 O3          7.5400    5.2870   -0.4380 o         1 MOL     -0.671366
     14 O4          9.5210    4.8400    0.4350 o         1 MOL     -0.671366
     15 H4          7.1350    2.5130    1.8750 hn        1 MOL      0.335200
     16 H5          9.0380    2.2430    0.9230 h1        1 MOL      0.061499
     17 H6          7.6810    3.0930   -1.6030 hc        1 MOL      0.094049
     18 H7          9.4480    3.1040   -1.4200 hc        1 MOL      0.094049
     19 N2          7.7820   -0.2780    0.1960 n         1 MOL     -0.297852
     20 C7          7.8620   -1.7050   -0.2080 c3        1 MOL      0.029734
     21 C8          6.5280   -2.3850   -0.5000 c         1 MOL      0.569645
     22 O5          6.4470   -3.4790   -1.0450 o         1 MOL     -0.584102
     23 C9          8.6650   -2.4910    0.8500 c3        1 MOL     -0.065980
     24 C10        10.1510   -2.0690    1.1500 c3        1 MOL     -0.048106
     25 C11        10.7930   -2.9660    2.1910 c3        1 MOL      0.007335
     26 C12        12.0690   -2.2780    2.6360 c3        1 MOL     -0.066736
     27 N3         12.6200   -3.1330    3.6830 n4        1 MOL     -0.075132
     28 H8          7.1430   -0.0570    0.9480 hn        1 MOL      0.176206
     29 H9          8.4010   -1.7360   -1.1540 h1        1 MOL      0.113073
     30 H10         8.6290   -3.5600    0.6450 hc        1 MOL      0.007617
     31 H11         8.1380   -2.3170    1.7920 hc        1 MOL      0.007617
     32 H12        10.1200   -0.9850    1.3170 hc        1 MOL      0.032706
     33 H13        10.6600   -2.1480    0.1850 hc        1 MOL      0.032706
     34 H14        11.1490   -3.8910    1.7310 hc        1 MOL      0.042513
     35 H15        10.1310   -3.2180    3.0260 hc        1 MOL      0.042513
     36 H16        11.9450   -1.2990    3.1080 hx        1 MOL      0.104001
     37 H17        12.7850   -2.3350    1.8230 hx        1 MOL      0.104001
     38 H18        12.5390   -4.1000    3.3850 hn        1 MOL      0.200942
     39 H19        13.6200   -2.9910    3.6490 hn        1 MOL      0.200942
     40 H20        12.2510   -3.0250    4.6070 hn        1 MOL      0.200942
     41 N4          5.4410   -1.7270   -0.1600 n         1 MOL     -0.433212
     42 C13         4.0860   -2.2190   -0.3810 c3        1 MOL      0.022370
     43 C14         3.5770   -2.0060   -1.8090 c         1 MOL      0.568497
     44 O6          3.7580   -0.8720   -2.3300 o         1 MOL     -0.471543
     45 C15         3.1340   -1.5260    0.6850 c3        1 MOL     -0.178866
     46 C16         1.6440   -1.9520    0.5650 c         1 MOL      0.663594
     47 O7          1.3030   -2.8340   -0.2590 o         1 MOL     -0.673843
     48 O8          0.8360   -1.3290    1.2440 o         1 MOL     -0.673843
     49 H21         5.5490   -0.7820    0.1880 hn        1 MOL      0.255196
     50 H22         4.1050   -3.3030   -0.2770 h1        1 MOL      0.060273
     51 H23         3.1460   -0.4440    0.5510 hc        1 MOL      0.056568
     52 H24         3.4870   -1.7900    1.6710 hc        1 MOL      0.056568
     53 N5          3.0440   -3.0210   -2.5190 n         1 MOL     -0.324267
     54 C17         2.4860   -2.8710   -3.8620 c3        1 MOL     -0.102813
     55 C18         1.4210   -1.8290   -3.9350 c         1 MOL      0.466357
     56 O9          1.2630   -1.1290   -4.9350 o         1 MOL     -0.523711
     57 H25         3.1560   -3.9600   -2.1630 hn        1 MOL      0.210679
     58 H26         1.9930   -3.7680   -4.2420 h1        1 MOL      0.095356
     59 H27         3.2330   -2.6290   -4.6190 h1        1 MOL      0.095356
     60 N6          0.6690   -1.6210   -2.8100 n         1 MOL     -0.347753
     61 C19        -0.3320   -0.5800   -2.7350 c3        1 MOL      0.198663
     62 C20         0.1840    0.8320   -2.4390 c         1 MOL      0.374202
     63 O10        -0.5960    1.7530   -2.5570 o         1 MOL     -0.515159
     64 C21        -1.4710   -1.0510   -1.8020 c3        1 MOL     -0.212477
     65 C22        -1.9970   -2.3810   -2.1950 c         1 MOL      0.561289
     66 N7         -2.9790   -2.5040   -3.0260 n         1 MOL     -0.666713
     67 O11        -1.7770   -3.4490   -1.5790 o         1 MOL     -0.577274
     68 H28         0.8360   -2.1330   -1.9630 hn        1 MOL      0.180074
     69 H29        -0.7970   -0.5660   -3.7230 h1        1 MOL      0.017559
     70 H30        -2.2550   -0.3170   -2.0070 hc        1 MOL      0.123710
     71 H31        -1.2890   -0.9300   -0.7280 hc        1 MOL      0.123710
     72 H32        -3.2700   -1.7230   -3.6080 hn        1 MOL      0.348576
     73 H33        -3.3040   -3.4520   -3.1400 hn        1 MOL      0.348576
     74 N8          1.4970    1.0410   -2.1550 n         1 MOL     -0.148667
     75 C23         2.1940    2.2350   -1.8130 c3        1 MOL     -0.042328
     76 C24         1.4680    3.0440   -0.7840 c         1 MOL      0.633127
     77 O12         1.4240    2.6980    0.3860 o         1 MOL     -0.536089
     78 H34         2.1050    0.2410   -2.0260 hn        1 MOL      0.146485
     79 H35         2.3210    2.7690   -2.7450 h1        1 MOL      0.062345
     80 H36         3.1790    1.9640   -1.4360 h1        1 MOL      0.062345
     81 N9          0.8460    4.1260   -1.2360 n         1 MOL     -0.750773
     82 C25        -0.0930    5.0240   -0.5510 c3        1 MOL      0.427043
     83 C26        -1.3680    4.3750   -0.0530 c         1 MOL      0.339268
     84 O13        -2.4550    4.8990   -0.2950 o         1 MOL     -0.546547
     85 C27         0.5950    5.7180    0.5670 c3        1 MOL     -0.226057
     86 C28        -0.2160    6.8870    1.0950 ca        1 MOL      0.013035
     87 C29        -0.2310    8.1430    0.3970 ca        1 MOL     -0.208570
     88 C30        -1.0640    6.7110    2.2210 ca        1 MOL     -0.208570
     89 C31        -1.1460    9.1100    0.7560 ca        1 MOL     -0.187231
     90 C32        -1.8790    7.7780    2.6380 ca        1 MOL     -0.187231
     91 C33        -1.9190    8.9970    1.9160 ca        1 MOL      0.290255
     92 O14        -2.7640    9.9450    2.3580 oh        1 MOL     -0.483091
     93 H37         0.8620    4.2500   -2.2400 hn        1 MOL      0.355603
     94 H38        -0.4600    5.7300   -1.3000 h1        1 MOL      0.016185
     95 H39         1.5420    6.1350    0.2210 hc        1 MOL      0.112809
     96 H40         0.7690    4.9590    1.3230 hc        1 MOL      0.112809
     97 H41         0.4010    8.3660   -0.4470 ha        1 MOL      0.154466
     98 H42        -0.9600    5.7680    2.7210 ha        1 MOL      0.154466
     99 H43        -1.2250   10.0600    0.2410 ha        1 MOL      0.134252
    100 H44        -2.4890    7.7010    3.5270 ha        1 MOL      0.134252
    101 H45        -3.0140    9.8010    3.2760 ho        1 MOL      0.361302
    102 N10        -1.2590    3.2320    0.5840 n         1 MOL     -0.020721
    103 C34        -2.4470    2.3620    1.0400 c3        1 MOL     -0.203235
    104 C35        -3.4760    1.8650   -0.0950 c         1 MOL      0.309371
    105 O15        -3.9550    0.7060   -0.1630 o         1 MOL     -0.490065
    106 C36        -3.0450    2.9370    2.3240 c3        1 MOL      0.335575
    107 C37        -2.0040    2.9540    3.4750 c3        1 MOL     -0.029202
    108 C38        -4.3830    2.3180    2.7350 c3        1 MOL     -0.562683
    109 C39        -2.3910    3.8910    4.6530 c3        1 MOL     -0.088706
    110 H46        -0.3550    2.8820    0.8710 hn        1 MOL      0.156782
    111 H47        -1.9670    1.4400    1.3670 h1        1 MOL      0.114355
    112 H48        -3.3390    3.9780    2.1710 hc        1 MOL     -0.020348
    113 H49        -1.0380    3.3830    3.2190 hc        1 MOL      0.004849
    114 H50        -1.9170    1.9070    3.7700 hc        1 MOL      0.004849
    115 H51        -5.0800    2.5350    1.9260 hc        1 MOL      0.152843
    116 H52        -4.1850    1.2740    2.9720 hc        1 MOL      0.152843
    117 H53        -4.7110    2.8170    3.6410 hc        1 MOL      0.152843
    118 H54        -3.2920    3.5920    5.1930 hc        1 MOL      0.013108
    119 H55        -1.5600    3.8260    5.3600 hc        1 MOL      0.013108
    120 H56        -2.4780    4.9230    4.3390 hc        1 MOL      0.013108
    121 N11        -3.7690    2.7840   -1.0630 n         1 MOL     -0.296402
    122 C40        -4.4060    2.2820   -2.3010 c3        1 MOL     -0.031871
    123 C41        -5.8630    1.9450   -2.2100 c         1 MOL      0.581605
    124 O16        -6.3940    1.2770   -3.1270 o         1 MOL     -0.552310
    125 C42        -4.1980    3.3800   -3.3720 c3        1 MOL      0.194305
    126 O17        -4.9890    4.5380   -3.1880 oh        1 MOL     -0.609101
    127 H57        -3.4480    3.7410   -1.0240 hn        1 MOL      0.309029
    128 H58        -3.8670    1.4470   -2.7500 h1        1 MOL      0.028352
    129 H59        -4.4640    2.9990   -4.3560 h1        1 MOL      0.016888
    130 H60        -3.1200    3.5960   -3.4100 h1        1 MOL      0.016888
    131 H61        -5.0650    4.8580   -4.0840 ho        1 MOL      0.407913
    132 N12        -6.5390    2.3060   -1.1060 n         1 MOL     -0.468132
    133 C43        -7.9060    1.8910   -0.8570 c3        1 MOL      0.307611
    134 C44        -8.1840    0.3690   -0.7810 c         1 MOL      0.433136
    135 O18        -9.3620    0.0130   -0.8890 o         1 MOL     -0.538230
    136 C45        -8.9490    2.7480   -1.6480 c3        1 MOL     -0.250013
    137 H62        -6.0570    2.8370   -0.3930 hn        1 MOL      0.279500
    138 H63        -8.1500    2.1290    0.1790 h1        1 MOL      0.007430
    139 H64        -8.5830    2.7750   -2.6740 hc        1 MOL      0.064855
    140 H65        -9.9640    2.3520   -1.5660 hc        1 MOL      0.064855
    141 H66        -8.9540    3.7740   -1.2900 hc        1 MOL      0.064855
    142 N13        -7.1450   -0.4240   -0.6870 n         1 MOL     -0.445023
    143 C46        -7.2100   -1.8990   -0.6280 c3        1 MOL      0.361373
    144 C47        -6.8410   -2.4650    0.7750 c         1 MOL      0.350375
    145 O19        -6.3060   -1.6670    1.5890 o         1 MOL     -0.492329
    146 C48        -6.3220   -2.4890   -1.7660 c3        1 MOL     -0.095801
    147 H67        -6.2530   -0.0220   -0.4800 hn        1 MOL      0.223195
    148 H68        -8.2140   -2.2770   -0.8200 h1        1 MOL     -0.041205
    149 H69        -5.3610   -1.9750   -1.8080 hc        1 MOL      0.026898
    150 H70        -6.1990   -3.5750   -1.7470 hc        1 MOL      0.026898
    151 H71        -6.7050   -2.2910   -2.7690 hc        1 MOL      0.026898
    152 N14        -7.0720   -3.7160    0.9760 n         1 MOL     -0.320792
    153 C49        -6.4610   -4.5410    2.0830 c3        1 MOL     -0.175357
    154 C50        -6.7050   -3.9710    3.5190 c         1 MOL      0.402200
    155 O20        -5.9080   -4.1710    4.3890 o         1 MOL     -0.469990
    156 C51        -4.9420   -4.7240    1.8480 c3        1 MOL      0.392743
    157 C52        -4.6640   -5.5530    0.5920 c3        1 MOL     -0.242309
    158 C53        -3.1410   -5.8300    0.4580 c         1 MOL      0.771211
    159 O21        -2.4100   -5.8200    1.4930 o         1 MOL     -0.763068
    160 O22        -2.6470   -6.1000   -0.6650 o         1 MOL     -0.763068
    161 H72        -7.6580   -4.1500    0.2840 hn        1 MOL      0.258989
    162 H73        -7.0790   -5.4270    2.0510 h1        1 MOL      0.096706
    163 H74        -4.3880   -5.1690    2.6740 hc        1 MOL     -0.039854
    164 H75        -4.5120   -3.7370    1.6820 hc        1 MOL     -0.039854
    165 H76        -4.9700   -4.8710   -0.2040 hc        1 MOL      0.012710
    166 H77        -5.1430   -6.5310    0.7090 hc        1 MOL      0.012710
    167 N15        -7.8540   -3.2320    3.7310 n         1 MOL     -0.249258
    168 C54        -8.2480   -2.7210    5.0750 c3        1 MOL     -0.102871
    169 H78        -8.0370   -1.6530    5.1340 h1        1 MOL      0.075380
    170 H79        -9.3140   -2.8890    5.2300 h1        1 MOL      0.075380
    171 H80        -7.6820   -3.2460    5.8450 h1        1 MOL      0.075380
    172 H81        -8.4300   -3.1630    2.9010 hn        1 MOL      0.206960
    173 Ca1        -0.4170   -4.8400    0.0630 Ca        1 MOL      1.712291
    174 O23         0.4660   -5.3750   -2.4830 oh        1 MOL     -0.817616
    175 H82        -0.1330   -5.6510   -3.1760 ho        1 MOL      0.407612
    176 H83         1.2960   -5.8020   -2.7040 ho        1 MOL      0.407612
    177 O24         0.5910   -5.0260    2.7440 oh        1 MOL     -0.817616
    178 H84         0.5090   -4.1630    3.1630 ho        1 MOL      0.407612
    179 H85         1.3870   -5.3980    3.1150 ho        1 MOL      0.407612
    180 O25         2.2170   -5.5930    0.1310 oh        1 MOL     -0.817616
    181 H86         2.5330   -6.0160   -0.6690 ho        1 MOL      0.407612
    182 H87         2.9470   -5.6520    0.7430 ho        1 MOL      0.407612
    183 O26        -1.5270   -2.6050    1.3050 oh        1 MOL     -0.817616
    184 H88        -2.3160   -2.2440    1.6930 ho        1 MOL      0.407612
    185 H89        -0.8780   -1.9100    1.3690 ho        1 MOL      0.407612
    186 O27        -0.2590   -7.4880    0.5130 oh        1 MOL     -0.817616
    187 H90         0.2760   -8.2270    0.7960 ho        1 MOL      0.407612
    188 H91        -1.1580   -7.8200    0.5690 ho        1 MOL      0.407612
@<TRIPOS>BOND
     1    1    2 1   
     2    1    4 1   
     3    1    5 1   
     4    1    6 1   
     5    2    3 2   
     6    2    7 1   
     7    7    8 1   
     8    7   15 1   
     9    8    9 1   
    10    8   11 1   
    11    8   16 1   
    12    9   10 2   
    13    9   19 1   
    14   11   12 1   
    15   11   17 1   
    16   11   18 1   
    17   12   13 1   
    18   12   14 1   
    19   19   20 1   
    20   19   28 1   
    21   20   21 1   
    22   20   23 1   
    23   20   29 1   
    24   21   22 2   
    25   21   41 1   
    26   23   24 1   
    27   23   30 1   
    28   23   31 1   
    29   24   25 1   
    30   24   32 1   
    31   24   33 1   
    32   25   26 1   
    33   25   34 1   
    34   25   35 1   
    35   26   27 1   
    36   26   36 1   
    37   26   37 1   
    38   27   38 1   
    39   27   39 1   
    40   27   40 1   
    41   41   42 1   
    42   41   49 1   
    43   42   43 1   
    44   42   45 1   
    45   42   50 1   
    46   43   44 2   
    47   43   53 1   
    48   45   46 1   
    49   45   51 1   
    50   45   52 1   
    51   46   47 1   
    52   46   48 1   
    53   53   54 1   
    54   53   57 1   
    55   54   55 1   
    56   54   58 1   
    57   54   59 1   
    58   55   56 2   
    59   55   60 1   
    60   60   61 1   
    61   60   68 1   
    62   61   62 1   
    63   61   64 1   
    64   61   69 1   
    65   62   63 2   
    66   62   74 1   
    67   64   65 1   
    68   64   70 1   
    69   64   71 1   
    70   65   66 1   
    71   65   67 2   
    72   66   72 1   
    73   66   73 1   
    74   74   75 1   
    75   74   78 1   
    76   75   76 1   
    77   75   79 1   
    78   75   80 1   
    79   76   77 2   
    80   76   81 1   
    81   81   82 1   
    82   81   93 1   
    83   82   83 1   
    84   82   85 1   
    85   82   94 1   
    86   83   84 2   
    87   83  102 1   
    88   85   86 1   
    89   85   95 1   
    90   85   96 1   
    91   86   87 ar  
    92   86   88 ar  
    93   87   89 ar  
    94   87   97 1   
    95   88   90 ar  
    96   88   98 1   
    97   89   91 ar  
    98   89   99 1   
    99   90   91 ar  
   100   90  100 1   
   101   91   92 1   
   102   92  101 1   
   103  102  103 1   
   104  102  110 1   
   105  103  104 1   
   106  103  106 1   
   107  103  111 1   
   108  104  105 2   
   109  104  121 1   
   110  106  107 1   
   111  106  108 1   
   112  106  112 1   
   113  107  109 1   
   114  107  113 1   
   115  107  114 1   
   116  108  115 1   
   117  108  116 1   
   118  108  117 1   
   119  109  118 1   
   120  109  119 1   
   121  109  120 1   
   122  121  122 1   
   123  121  127 1   
   124  122  123 1   
   125  122  125 1   
   126  122  128 1   
   127  123  124 2   
   128  123  132 1   
   129  125  126 1   
   130  125  129 1   
   131  125  130 1   
   132  126  131 1   
   133  132  133 1   
   134  132  137 1   
   135  133  134 1   
   136  133  136 1   
   137  133  138 1   
   138  134  135 2   
   139  134  142 1   
   140  136  139 1   
   141  136  140 1   
   142  136  141 1   
   143  142  143 1   
   144  142  147 1   
   145  143  144 1   
   146  143  146 1   
   147  143  148 1   
   148  144  145 2   
   149  144  152 1   
   150  146  149 1   
   151  146  150 1   
   152  146  151 1   
   153  152  153 1   
   154  152  161 1   
   155  153  154 1   
   156  153  156 1   
   157  153  162 1   
   158  154  155 2   
   159  154  167 1   
   160  156  157 1   
   161  156  163 1   
   162  156  164 1   
   163  157  158 1   
   164  157  165 1   
   165  157  166 1   
   166  158  159 1   
   167  158  160 1   
   168  167  168 1   
   169  167  172 1   
   170  168  169 1   
   171  168  170 1   
   172  168  171 1   
   173  174  175 1   
   174  174  176 1   
   175  177  178 1   
   176  177  179 1   
   177  180  181 1   
   178  180  182 1   
   179  183  184 1   
   180  183  185 1   
   181  186  187 1   
   182  186  188 1   
@<TRIPOS>SUBSTRUCTURE
     1 MOL         1 TEMP              0 ****  ****    0 ROOT
