@<TRIPOS>MOLECULE
MOL
  188   182     1     0     0
SMALL
resp


@<TRIPOS>ATOM
      1 C1         -5.4920   -1.9340    4.2790 c3        1 MOL     -0.242028
      2 C2         -6.0300   -1.9680    2.8140 c         1 MOL      0.611482
      3 O1         -5.5420   -1.2990    1.9000 o         1 MOL     -0.584882
      4 H1         -4.4020   -1.9420    4.2670 hc        1 MOL      0.062596
      5 H2         -5.8420   -1.0280    4.7740 hc        1 MOL      0.062596
      6 H3         -5.8550   -2.8070    4.8220 hc        1 MOL      0.062596
      7 N1         -7.0890   -2.7130    2.5610 n         1 MOL     -0.472870
      8 C3         -7.7380   -2.9460    1.2980 c3        1 MOL      0.271711
      9 C4         -8.0760   -1.6420    0.5470 c         1 MOL      0.377531
     10 O2         -8.0860   -1.5610   -0.6790 o         1 MOL     -0.427133
     11 C5         -6.9470   -3.9840    0.4150 c3        1 MOL     -0.354982
     12 C6         -7.6980   -4.6310   -0.7830 c         1 MOL      0.689302
     13 O3         -6.9740   -4.8530   -1.7640 o         1 MOL     -0.633969
     14 O4         -8.9250   -4.8590   -0.7680 o         1 MOL     -0.633969
     15 H4         -7.5940   -3.1840    3.2910 hn        1 MOL      0.289324
     16 H5         -8.6920   -3.4650    1.4160 h1        1 MOL     -0.015275
     17 H6         -6.5760   -4.7130    1.1390 hc        1 MOL      0.099679
     18 H7         -6.0570   -3.4190    0.1760 hc        1 MOL      0.099679
     19 N2         -8.3530   -0.5810    1.3050 n         1 MOL     -0.379759
     20 C7         -8.6740    0.8150    0.7750 c3        1 MOL      0.027674
     21 C8         -7.3730    1.4650    0.2870 c         1 MOL      0.550319
     22 O5         -7.5630    2.4160   -0.5160 o         1 MOL     -0.574164
     23 C9         -9.4790    1.5990    1.8270 c3        1 MOL      0.187949
     24 C10       -10.4010    2.6300    1.1660 c3        1 MOL     -0.036923
     25 C11       -10.9950    3.6880    2.1230 c3        1 MOL      0.100661
     26 C12       -12.0680    4.4450    1.3390 c3        1 MOL      0.001837
     27 N3        -12.8210    5.5460    2.0460 n4        1 MOL     -0.119354
     28 H8         -8.4280   -0.8240    2.2820 hn        1 MOL      0.173980
     29 H9         -9.2500    0.6040   -0.1220 h1        1 MOL      0.091029
     30 H10        -8.8350    2.1200    2.5220 hc        1 MOL     -0.037712
     31 H11       -10.0370    0.8570    2.3970 hc        1 MOL     -0.037712
     32 H12       -11.2750    2.1140    0.7530 hc        1 MOL      0.013190
     33 H13        -9.8230    3.1800    0.4130 hc        1 MOL      0.013190
     34 H14       -10.1910    4.3530    2.4460 hc        1 MOL     -0.020281
     35 H15       -11.4290    3.1860    2.9890 hc        1 MOL     -0.020281
     36 H16       -12.8230    3.6910    1.1370 hx        1 MOL      0.067969
     37 H17       -11.5910    4.7990    0.4230 hx        1 MOL      0.067969
     38 H18       -13.0910    5.1450    2.9330 hn        1 MOL      0.197028
     39 H19       -12.2740    6.3250    2.3760 hn        1 MOL      0.197028
     40 H20       -13.6710    5.7160    1.5140 hn        1 MOL      0.197028
     41 N4         -6.2160    1.0150    0.6370 n         1 MOL     -0.453583
     42 C13        -4.9160    1.6070    0.1970 c3        1 MOL      0.037815
     43 C14        -4.7490    1.8570   -1.3360 c         1 MOL      0.697206
     44 O6         -5.2550    1.0650   -2.1620 o         1 MOL     -0.474340
     45 C15        -3.6930    0.7740    0.7070 c3        1 MOL     -0.310984
     46 C16        -2.3630    1.3380    0.3310 c         1 MOL      0.706348
     47 O7         -1.7310    2.1160    1.0570 o         1 MOL     -0.743168
     48 O8         -1.8680    1.0050   -0.7910 o         1 MOL     -0.743168
     49 H21        -6.1620    0.0990    1.0460 hn        1 MOL      0.295313
     50 H22        -4.9310    2.6310    0.5840 h1        1 MOL      0.027457
     51 H23        -3.7680   -0.2340    0.3050 hc        1 MOL      0.136835
     52 H24        -3.6510    0.7660    1.7960 hc        1 MOL      0.136835
     53 N5         -4.1230    2.9750   -1.6190 n         1 MOL     -0.601560
     54 C17        -3.8260    3.5260   -3.0170 c3        1 MOL      0.281766
     55 C18        -3.3100    2.5890   -4.1270 c         1 MOL      0.346309
     56 O9         -3.6780    2.6300   -5.3070 o         1 MOL     -0.523135
     57 H25        -3.8460    3.6020   -0.8770 hn        1 MOL      0.299272
     58 H26        -3.1060    4.3460   -2.9710 h1        1 MOL     -0.013231
     59 H27        -4.6830    4.0620   -3.4130 h1        1 MOL     -0.013231
     60 N6         -2.6620    1.5550   -3.6590 n         1 MOL     -0.098773
     61 C19        -2.2490    0.3930   -4.4680 c3        1 MOL     -0.023993
     62 C20        -2.6350   -1.0080   -3.9490 c         1 MOL      0.512110
     63 O10        -2.5590   -1.8970   -4.7560 o         1 MOL     -0.535356
     64 C21        -0.7010    0.5730   -4.7590 c3        1 MOL     -0.426550
     65 C22         0.1450    0.3900   -3.4930 c         1 MOL      0.606757
     66 N7          0.4830   -0.7650   -3.0830 n         1 MOL     -0.564114
     67 O11         0.4980    1.3880   -2.8480 o         1 MOL     -0.695953
     68 H28        -2.5830    1.4690   -2.6510 hn        1 MOL      0.149957
     69 H29        -2.7100    0.4000   -5.4550 h1        1 MOL      0.152928
     70 H30        -0.4650    1.5530   -5.1710 hc        1 MOL      0.154104
     71 H31        -0.4200   -0.1360   -5.5420 hc        1 MOL      0.154104
     72 H32         0.4570   -1.5460   -3.7260 hn        1 MOL      0.320355
     73 H33         1.2670   -0.8470   -2.4490 hn        1 MOL      0.320355
     74 N8         -3.0250   -1.1290   -2.6630 n         1 MOL     -0.206666
     75 C23        -3.4690   -2.3920   -2.0540 c3        1 MOL      0.063813
     76 C24        -2.6740   -2.8000   -0.7810 c         1 MOL      0.362979
     77 O12        -2.8080   -3.9010   -0.3190 o         1 MOL     -0.493480
     78 H34        -3.0440   -0.2760   -2.1230 hn        1 MOL      0.059288
     79 H35        -3.5010   -3.2460   -2.7300 h1        1 MOL      0.102927
     80 H36        -4.5140   -2.3680   -1.7460 h1        1 MOL      0.102927
     81 N9         -1.8270   -1.8640   -0.3300 n         1 MOL     -0.035609
     82 C25        -0.9210   -2.1840    0.8010 c3        1 MOL     -0.000348
     83 C26         0.4670   -1.5120    0.5670 c         1 MOL      0.533274
     84 O13         0.5430   -0.3730    0.0190 o         1 MOL     -0.369495
     85 C27        -1.5390   -1.7650    2.1430 c3        1 MOL     -0.256543
     86 C28        -0.6580   -1.8300    3.3640 ca        1 MOL      0.137422
     87 C29        -0.3190   -3.0900    3.8970 ca        1 MOL     -0.158158
     88 C30        -0.0320   -0.6740    3.9680 ca        1 MOL     -0.158158
     89 C31         0.5130   -3.2030    5.0790 ca        1 MOL     -0.341576
     90 C32         0.8300   -0.7400    5.1020 ca        1 MOL     -0.341576
     91 C33         1.1630   -2.0160    5.6220 ca        1 MOL      0.402739
     92 O14         2.0490   -2.0500    6.6950 oh        1 MOL     -0.482891
     93 H37        -1.6250   -0.9800   -0.7710 hn        1 MOL     -0.158711
     94 H38        -0.8970   -3.2700    0.7720 h1        1 MOL      0.068575
     95 H39        -2.3730   -2.4090    2.4100 hc        1 MOL      0.119043
     96 H40        -1.8440   -0.7210    2.1310 hc        1 MOL      0.119043
     97 H41        -0.7890   -3.9560    3.4520 ha        1 MOL      0.144047
     98 H42        -0.3050    0.2810    3.5380 ha        1 MOL      0.144047
     99 H43         0.5800   -4.1290    5.6450 ha        1 MOL      0.182131
    100 H44         1.3670    0.1280    5.4600 ha        1 MOL      0.182131
    101 H45         2.3200   -1.1380    6.8390 ho        1 MOL      0.356675
    102 N10         1.5510   -2.2260    0.7790 n         1 MOL     -0.462016
    103 C34         2.8710   -1.5780    0.7310 c3        1 MOL     -0.173287
    104 C35         3.5270   -1.5210   -0.5970 c         1 MOL      0.058783
    105 O15         4.3660   -0.6270   -0.8090 o         1 MOL     -0.356188
    106 C36         3.8850   -2.0670    1.8450 c3        1 MOL      0.500695
    107 C37         4.4200   -3.4730    1.4240 c3        1 MOL      0.162229
    108 C38         3.1630   -2.0970    3.2240 c3        1 MOL     -0.483084
    109 C39         5.3990   -4.0360    2.4550 c3        1 MOL     -0.285844
    110 H46         1.4590   -3.1630    1.1520 hn        1 MOL      0.298977
    111 H47         2.6890   -0.5300    0.9420 h1        1 MOL      0.099860
    112 H48         4.7140   -1.3760    1.9770 hc        1 MOL     -0.065445
    113 H49         4.9400   -3.4390    0.4680 hc        1 MOL     -0.032092
    114 H50         3.5560   -4.1380    1.3630 hc        1 MOL     -0.032092
    115 H51         2.5650   -3.0130    3.2930 hc        1 MOL      0.111380
    116 H52         3.9090   -2.1560    4.0190 hc        1 MOL      0.111380
    117 H53         2.5790   -1.1890    3.3870 hc        1 MOL      0.111380
    118 H54         6.2690   -3.3800    2.5740 hc        1 MOL      0.074482
    119 H55         4.9790   -4.0850    3.4600 hc        1 MOL      0.074482
    120 H56         5.8170   -4.9770    2.0980 hc        1 MOL      0.074482
    121 N11         3.1550   -2.3630   -1.5610 n         1 MOL     -0.152234
    122 C40         3.7220   -2.3190   -2.9150 c3        1 MOL     -0.055693
    123 C41         5.2220   -2.4520   -3.0170 c         1 MOL      0.378154
    124 O16         5.8880   -2.1170   -4.0390 o         1 MOL     -0.465183
    125 C42         2.9050   -3.3730   -3.7470 c3        1 MOL      0.185088
    126 O17         1.7320   -2.8960   -4.3160 oh        1 MOL     -0.621247
    127 H57         2.4400   -3.0360   -1.3310 hn        1 MOL      0.268610
    128 H58         3.4940   -1.3220   -3.2700 h1        1 MOL      0.126531
    129 H59         2.8340   -4.2640   -3.1220 h1        1 MOL      0.039954
    130 H60         3.5980   -3.6370   -4.5520 h1        1 MOL      0.039954
    131 H61         1.6230   -3.2570   -5.2000 ho        1 MOL      0.442739
    132 N12         5.8900   -2.9940   -2.0190 n         1 MOL     -0.327020
    133 C43         7.2960   -2.7510   -1.7680 c3        1 MOL      0.394270
    134 C44         7.8480   -1.3370   -1.9410 c         1 MOL      0.417171
    135 O18         8.9320   -1.1330   -2.5210 o         1 MOL     -0.548496
    136 C45         8.1560   -3.8240   -2.5020 c3        1 MOL     -0.309803
    137 H62         5.4310   -3.3340   -1.1780 hn        1 MOL      0.126404
    138 H63         7.4650   -2.9050   -0.7090 h1        1 MOL     -0.006579
    139 H64         7.9350   -3.7220   -3.5640 hc        1 MOL      0.078332
    140 H65         9.2310   -3.7600   -2.3240 hc        1 MOL      0.078332
    141 H66         7.9380   -4.8460   -2.1850 hc        1 MOL      0.078332
    142 N13         7.1290   -0.3080   -1.4940 n         1 MOL     -0.332167
    143 C46         7.4740    1.0880   -1.3650 c3        1 MOL      0.524900
    144 C47         7.7770    1.3560    0.1280 c         1 MOL      0.122961
    145 O19         6.9980    0.8450    0.9680 o         1 MOL     -0.420111
    146 C48         6.3770    1.9130   -1.9330 c3        1 MOL     -0.307838
    147 H67         6.3220   -0.6030   -0.9550 hn        1 MOL      0.085821
    148 H68         8.3480    1.3270   -1.9650 h1        1 MOL     -0.010689
    149 H69         5.6940    1.3770   -2.5940 hc        1 MOL      0.064036
    150 H70         5.8450    2.4920   -1.1800 hc        1 MOL      0.064036
    151 H71         6.8970    2.6660   -2.5360 hc        1 MOL      0.064036
    152 N14         8.8300    2.1190    0.4840 n         1 MOL     -0.333421
    153 C49         9.2610    2.4670    1.8800 c3        1 MOL     -0.033544
    154 C50         9.7490    1.2000    2.7050 c         1 MOL      0.411001
    155 O20         9.8140    1.2070    3.9380 o         1 MOL     -0.509900
    156 C51         8.1610    3.3740    2.5210 c3        1 MOL      0.225143
    157 C52         7.4820    4.5010    1.7180 c3        1 MOL     -0.185211
    158 C53         8.4290    5.3440    0.7970 c         1 MOL      0.715677
    159 O21         8.0260    5.7870   -0.2920 o         1 MOL     -0.695702
    160 O22         9.6100    5.4550    1.2480 o         1 MOL     -0.695702
    161 H72         9.3760    2.4100   -0.3150 hn        1 MOL      0.277755
    162 H73        10.2260    2.9540    1.7310 h1        1 MOL      0.110344
    163 H74         8.6040    3.7720    3.4310 hc        1 MOL     -0.039417
    164 H75         7.3800    2.6710    2.8070 hc        1 MOL     -0.039417
    165 H76         7.0340    5.1340    2.4800 hc        1 MOL     -0.000013
    166 H77         6.7040    4.0020    1.1530 hc        1 MOL     -0.000013
    167 N15        10.2690    0.1110    2.1020 n         1 MOL     -0.205305
    168 C54        10.5810   -1.1880    2.6790 c3        1 MOL     -0.157725
    169 H78        11.5910   -1.1700    3.0890 h1        1 MOL      0.082532
    170 H79         9.8710   -1.4140    3.4740 h1        1 MOL      0.082532
    171 H80        10.5180   -1.9540    1.9060 h1        1 MOL      0.082532
    172 H81        10.3210    0.1190    1.0880 hn        1 MOL      0.183670
    173 Ca1         0.4490    2.3070   -0.3170 Ca        1 MOL      1.840127
    174 O23        -0.9880    4.0030   -1.6100 oh        1 MOL     -0.867562
    175 H82        -1.5730    4.6160   -1.1620 ho        1 MOL      0.429659
    176 H83        -1.0270    4.2580   -2.5330 ho        1 MOL      0.429659
    177 O24        -0.0760    4.3840    1.3920 oh        1 MOL     -0.867562
    178 H84        -0.9050    4.2840    1.8580 ho        1 MOL      0.429659
    179 H85         0.1820    5.2900    1.5400 ho        1 MOL      0.429659
    180 O25         3.0020    1.5590   -0.8410 oh        1 MOL     -0.867562
    181 H86         3.5920    0.7950   -0.7820 ho        1 MOL      0.429659
    182 H87         3.3290    2.0350   -1.6040 ho        1 MOL      0.429659
    183 O26         1.8510    4.5200   -0.8380 oh        1 MOL     -0.867562
    184 H88         2.6160    4.9140   -0.4230 ho        1 MOL      0.429659
    185 H89         1.5830    5.1560   -1.5020 ho        1 MOL      0.429659
    186 O27         1.6150    1.4630    2.0800 oh        1 MOL     -0.867562
    187 H90         2.5260    1.1970    2.2270 ho        1 MOL      0.429659
    188 H91         1.3370    1.8400    2.9100 ho        1 MOL      0.429659
@<TRIPOS>BOND
     1    1    2 1   
     2    1    4 1   
     3    1    5 1   
     4    1    6 1   
     5    2    3 2   
     6    2    7 1   
     7    7    8 1   
     8    7   15 1   
     9    8    9 1   
    10    8   11 1   
    11    8   16 1   
    12    9   10 2   
    13    9   19 1   
    14   11   12 1   
    15   11   17 1   
    16   11   18 1   
    17   12   13 1   
    18   12   14 1   
    19   19   20 1   
    20   19   28 1   
    21   20   21 1   
    22   20   23 1   
    23   20   29 1   
    24   21   22 2   
    25   21   41 1   
    26   23   24 1   
    27   23   30 1   
    28   23   31 1   
    29   24   25 1   
    30   24   32 1   
    31   24   33 1   
    32   25   26 1   
    33   25   34 1   
    34   25   35 1   
    35   26   27 1   
    36   26   36 1   
    37   26   37 1   
    38   27   38 1   
    39   27   39 1   
    40   27   40 1   
    41   41   42 1   
    42   41   49 1   
    43   42   43 1   
    44   42   45 1   
    45   42   50 1   
    46   43   44 2   
    47   43   53 1   
    48   45   46 1   
    49   45   51 1   
    50   45   52 1   
    51   46   47 1   
    52   46   48 1   
    53   53   54 1   
    54   53   57 1   
    55   54   55 1   
    56   54   58 1   
    57   54   59 1   
    58   55   56 2   
    59   55   60 1   
    60   60   61 1   
    61   60   68 1   
    62   61   62 1   
    63   61   64 1   
    64   61   69 1   
    65   62   63 2   
    66   62   74 1   
    67   64   65 1   
    68   64   70 1   
    69   64   71 1   
    70   65   66 1   
    71   65   67 2   
    72   66   72 1   
    73   66   73 1   
    74   74   75 1   
    75   74   78 1   
    76   75   76 1   
    77   75   79 1   
    78   75   80 1   
    79   76   77 2   
    80   76   81 1   
    81   81   82 1   
    82   81   93 1   
    83   82   83 1   
    84   82   85 1   
    85   82   94 1   
    86   83   84 2   
    87   83  102 1   
    88   85   86 1   
    89   85   95 1   
    90   85   96 1   
    91   86   87 ar  
    92   86   88 ar  
    93   87   89 ar  
    94   87   97 1   
    95   88   90 ar  
    96   88   98 1   
    97   89   91 ar  
    98   89   99 1   
    99   90   91 ar  
   100   90  100 1   
   101   91   92 1   
   102   92  101 1   
   103  102  103 1   
   104  102  110 1   
   105  103  104 1   
   106  103  106 1   
   107  103  111 1   
   108  104  105 2   
   109  104  121 1   
   110  106  107 1   
   111  106  108 1   
   112  106  112 1   
   113  107  109 1   
   114  107  113 1   
   115  107  114 1   
   116  108  115 1   
   117  108  116 1   
   118  108  117 1   
   119  109  118 1   
   120  109  119 1   
   121  109  120 1   
   122  121  122 1   
   123  121  127 1   
   124  122  123 1   
   125  122  125 1   
   126  122  128 1   
   127  123  124 2   
   128  123  132 1   
   129  125  126 1   
   130  125  129 1   
   131  125  130 1   
   132  126  131 1   
   133  132  133 1   
   134  132  137 1   
   135  133  134 1   
   136  133  136 1   
   137  133  138 1   
   138  134  135 2   
   139  134  142 1   
   140  136  139 1   
   141  136  140 1   
   142  136  141 1   
   143  142  143 1   
   144  142  147 1   
   145  143  144 1   
   146  143  146 1   
   147  143  148 1   
   148  144  145 2   
   149  144  152 1   
   150  146  149 1   
   151  146  150 1   
   152  146  151 1   
   153  152  153 1   
   154  152  161 1   
   155  153  154 1   
   156  153  156 1   
   157  153  162 1   
   158  154  155 2   
   159  154  167 1   
   160  156  157 1   
   161  156  163 1   
   162  156  164 1   
   163  157  158 1   
   164  157  165 1   
   165  157  166 1   
   166  158  159 1   
   167  158  160 1   
   168  167  168 1   
   169  167  172 1   
   170  168  169 1   
   171  168  170 1   
   172  168  171 1   
   173  174  175 1   
   174  174  176 1   
   175  177  178 1   
   176  177  179 1   
   177  180  181 1   
   178  180  182 1   
   179  183  184 1   
   180  183  185 1   
   181  186  187 1   
   182  186  188 1   
@<TRIPOS>SUBSTRUCTURE
     1 MOL         1 TEMP              0 ****  ****    0 ROOT
