@<TRIPOS>MOLECULE
MOL
  178   175     1     0     0
SMALL
resp


@<TRIPOS>ATOM
      1 C1         11.3510    6.6830   -0.4430 c3        1 MOL     -0.346370
      2 C2         10.3380    5.6910    0.0340 c         1 MOL      0.700145
      3 O1          9.3450    6.0860    0.5330 o         1 MOL     -0.556522
      4 H1         11.2190    7.6230    0.0930 hc        1 MOL      0.074102
      5 H2         12.3530    6.2980   -0.2590 hc        1 MOL      0.074102
      6 H3         11.2170    6.8540   -1.5110 hc        1 MOL      0.074102
      7 N1         10.5990    4.3600   -0.1200 n         1 MOL     -0.488868
      8 C3         11.7870    3.6460   -0.6950 c3        1 MOL      0.003650
      9 C4         12.4380    2.6840    0.2980 c         1 MOL      0.400905
     10 O2         13.5050    2.1420   -0.0320 o         1 MOL     -0.551131
     11 C5         11.3320    2.9610   -1.9660 c3        1 MOL     -0.050493
     12 C6         10.1640    2.0040   -1.7480 c         1 MOL      0.428211
     13 O3          9.1480    2.1610   -2.4840 o         1 MOL     -0.630775
     14 O4         10.1500    1.0710   -0.9020 o         1 MOL     -0.630775
     15 H4          9.8660    3.7270    0.1820 hn        1 MOL      0.386709
     16 H5         12.6100    4.3410   -0.9100 h1        1 MOL      0.065572
     17 H6         12.1310    2.3850   -2.4510 hc        1 MOL      0.036617
     18 H7         11.0500    3.7010   -2.7120 hc        1 MOL      0.036617
     19 N2         11.8530    2.5170    1.4950 n         1 MOL     -0.171612
     20 C7         11.9730    1.5430    2.5880 c3        1 MOL      0.190469
     21 C8         10.5830    1.0510    3.0150 c         1 MOL      0.605771
     22 O5         10.3460    0.9450    4.2140 o         1 MOL     -0.570094
     23 C9         12.9170    2.1590    3.6370 c3        1 MOL     -0.438819
     24 H8         11.2820    3.3100    1.7340 hn        1 MOL      0.147554
     25 H9         12.3910    0.6090    2.1960 h1        1 MOL      0.039854
     26 H10        13.2520    1.4550    4.4000 hc        1 MOL      0.108965
     27 H11        13.8450    2.4630    3.1700 hc        1 MOL      0.108965
     28 H12        12.4100    2.9410    4.2030 hc        1 MOL      0.108965
     29 N3          9.7150    0.6120    2.0440 n         1 MOL     -0.523725
     30 C10         8.3920    0.1120    2.3370 c3        1 MOL      0.228496
     31 C11         8.0810   -1.0890    1.4470 c         1 MOL      0.465980
     32 O6          8.7700   -1.4020    0.4830 o         1 MOL     -0.502924
     33 C12         7.3740    1.2120    1.9950 c3        1 MOL     -0.242852
     34 C13         7.6000    2.0270    0.7440 c         1 MOL      0.885266
     35 O7          7.1860    1.5590   -0.3080 o         1 MOL     -0.751400
     36 O8          8.3170    3.0100    0.7750 o         1 MOL     -0.751400
     37 H13        10.0290    0.8650    1.1150 hn        1 MOL      0.180596
     38 H14         8.2220   -0.1770    3.3740 h1        1 MOL      0.038421
     39 H15         7.3940    1.8640    2.8710 hc        1 MOL      0.028270
     40 H16         6.3750    0.7920    1.8860 hc        1 MOL      0.028270
     41 N4          7.0860   -1.9470    1.7770 n         1 MOL     -0.526572
     42 C14         6.6140   -2.9200    0.8040 c3        1 MOL     -0.034677
     43 C15         5.9340   -2.3670   -0.4410 c         1 MOL      0.505892
     44 O9          5.9770   -1.1690   -0.6370 o         1 MOL     -0.436711
     45 H17         6.4040   -1.6420    2.4580 hn        1 MOL      0.338197
     46 H18         5.9090   -3.5360    1.3490 h1        1 MOL      0.071059
     47 H19         7.4200   -3.5540    0.4520 h1        1 MOL      0.071059
     48 N5          5.3130   -3.2630   -1.1950 n         1 MOL     -0.321657
     49 C16         4.5750   -3.0190   -2.4330 c3        1 MOL      0.018205
     50 C17         3.1210   -3.3630   -2.2820 c         1 MOL      0.457105
     51 O10         2.2570   -2.5920   -2.7230 o         1 MOL     -0.477624
     52 C18         5.2530   -3.6890   -3.6720 c3        1 MOL     -0.083824
     53 C19         6.7090   -3.2610   -3.8380 c         1 MOL      0.716318
     54 N6          7.4430   -3.9920   -4.6100 n         1 MOL     -0.651138
     55 O11         7.2320   -2.3460   -3.1810 o         1 MOL     -0.775862
     56 H20         5.4490   -4.2190   -0.8840 hn        1 MOL      0.190123
     57 H21         4.4800   -1.9720   -2.7120 h1        1 MOL      0.138842
     58 H22         4.7460   -3.4350   -4.6010 hc        1 MOL      0.039848
     59 H23         5.1560   -4.7660   -3.5750 hc        1 MOL      0.039848
     60 H24         7.0230   -4.6810   -5.2150 hn        1 MOL      0.300336
     61 H25         8.4150   -3.7290   -4.7620 hn        1 MOL      0.300336
     62 N7          2.7900   -4.2660   -1.3780 n         1 MOL     -0.521965
     63 C20         1.3940   -4.3680   -0.9280 c3        1 MOL     -0.036301
     64 C21         1.2650   -3.5300    0.3750 c         1 MOL      0.634758
     65 O12         2.1000   -2.6430    0.6300 o         1 MOL     -0.541365
     66 H26         3.5600   -4.7060   -0.9000 hn        1 MOL      0.317949
     67 H27         1.1760   -5.3760   -0.5930 h1        1 MOL      0.111512
     68 H28         0.6860   -3.9890   -1.6700 h1        1 MOL      0.111512
     69 N8          0.2200   -3.6430    1.2540 n         1 MOL     -0.549045
     70 C22        -0.9510   -4.5470    1.1470 c3        1 MOL     -0.019521
     71 C23        -2.2850   -3.8300    1.3140 c         1 MOL      0.588662
     72 O13        -3.2680   -4.5350    1.3410 o         1 MOL     -0.554353
     73 C24        -0.9400   -5.6800    2.1770 c3        1 MOL      0.283565
     74 C25         0.2080   -6.5830    2.0200 c3        1 MOL     -0.114834
     75 O14        -0.9280   -5.1660    3.5540 oh        1 MOL     -0.578762
     76 H29         0.2830   -2.9850    2.0070 hn        1 MOL      0.331157
     77 H30        -0.9560   -4.9310    0.1200 h1        1 MOL      0.075158
     78 H31        -1.8410   -6.2740    2.0350 h1        1 MOL      0.017024
     79 H32        -1.6470   -5.5970    4.0100 ho        1 MOL      0.384270
     80 H33         0.2740   -7.2830    2.8630 hc        1 MOL      0.011236
     81 H34         0.3040   -7.1550    1.0840 hc        1 MOL      0.011236
     82 H35         1.1090   -5.9700    2.0600 hc        1 MOL      0.011236
     83 N9         -2.4150   -2.4910    1.5470 n         1 MOL     -0.385687
     84 C26        -3.5810   -1.7870    2.0780 c3        1 MOL     -0.001718
     85 C27        -3.8990   -0.6880    1.0470 c         1 MOL      0.537967
     86 O15        -2.9820   -0.0680    0.5750 o         1 MOL     -0.563817
     87 C28        -3.2120   -1.2060    3.4970 c3        1 MOL      0.023800
     88 C29        -2.7530   -2.3450    4.4810 c3        1 MOL      0.100998
     89 C30        -4.4260   -0.3830    4.1500 c3        1 MOL     -0.023542
     90 C31        -2.1510   -1.9840    5.7900 c3        1 MOL     -0.207128
     91 H36        -1.5480   -1.9830    1.6420 hn        1 MOL      0.237551
     92 H37        -4.4600   -2.4030    2.2400 h1        1 MOL      0.070023
     93 H38        -2.3610   -0.5350    3.3700 hc        1 MOL      0.032677
     94 H39        -1.9000   -2.8470    4.0230 hc        1 MOL     -0.013746
     95 H40        -3.5130   -3.1080    4.6210 hc        1 MOL     -0.013746
     96 H41        -4.6360    0.5160    3.5750 hc        1 MOL      0.017577
     97 H42        -5.2250   -1.1160    4.2530 hc        1 MOL      0.017577
     98 H43        -4.2050   -0.0510    5.1700 hc        1 MOL      0.017577
     99 H44        -1.4020   -1.1970    5.6760 hc        1 MOL      0.034876
    100 H45        -2.8790   -1.6330    6.5260 hc        1 MOL      0.034876
    101 H46        -1.7330   -2.8740    6.2700 hc        1 MOL      0.034876
    102 N10        -5.1500   -0.4870    0.6520 n         1 MOL     -0.345064
    103 C32        -6.4850   -1.0520    1.0200 c3        1 MOL      0.038124
    104 C33        -7.6160   -0.2830    0.2870 c         1 MOL      0.440445
    105 O16        -7.3740    0.5610   -0.6030 o         1 MOL     -0.510584
    106 C34        -6.6510   -2.5910    0.6400 c3        1 MOL      0.070369
    107 C35        -6.3000   -2.7860   -0.7970 c         1 MOL      0.676693
    108 O17        -5.1000   -2.8180   -1.1880 o         1 MOL     -0.703860
    109 O18        -7.2590   -3.0280   -1.5930 o         1 MOL     -0.703860
    110 H47        -5.0670    0.0430   -0.2030 hn        1 MOL      0.279891
    111 H48        -6.7230   -0.9030    2.0760 h1        1 MOL      0.033209
    112 H49        -7.6800   -2.9220    0.7780 hc        1 MOL     -0.058857
    113 H50        -6.0710   -3.2370    1.3000 hc        1 MOL     -0.058857
    114 N11        -8.9280   -0.4550    0.6080 n         1 MOL     -0.372231
    115 C36       -10.0650   -0.1090   -0.2090 c3        1 MOL      0.584625
    116 C37       -11.2210    0.6290    0.6080 c         1 MOL      0.158206
    117 O19       -11.4970    0.1360    1.7160 o         1 MOL     -0.500795
    118 C38       -10.4240   -1.3910   -0.9250 c3        1 MOL     -0.040263
    119 C39       -11.7160   -1.2440   -1.7800 ca        1 MOL      0.165090
    120 C40       -11.5150   -0.7930   -3.0960 ca        1 MOL     -0.212315
    121 C41       -13.0230   -1.4510   -1.2810 ca        1 MOL     -0.212315
    122 C42       -12.6430   -0.6710   -3.9430 ca        1 MOL     -0.084487
    123 C43       -14.1550   -1.2210   -2.1080 ca        1 MOL     -0.084487
    124 C44       -13.9490   -0.8730   -3.4220 ca        1 MOL     -0.181039
    125 H51        -9.1620   -0.9290    1.4700 hn        1 MOL      0.226988
    126 H52        -9.5870    0.5960   -0.8880 h1        1 MOL     -0.111924
    127 H53       -10.7590   -2.1050   -0.1720 hc        1 MOL     -0.021647
    128 H54        -9.5890   -1.8110   -1.4900 hc        1 MOL     -0.021647
    129 H55       -10.5480   -0.5550   -3.5360 ha        1 MOL      0.138737
    130 H56       -13.1940   -1.7450   -0.2660 ha        1 MOL      0.138737
    131 H57       -12.5250   -0.2470   -4.9350 ha        1 MOL      0.096527
    132 H58       -15.1710   -1.2510   -1.7280 ha        1 MOL      0.096527
    133 H59       -14.7820   -0.5770   -4.0430 ha        1 MOL      0.098457
    134 N12       -11.8630    1.7060   -0.0120 n         1 MOL      0.202703
    135 C45       -11.5480    2.4080   -1.2030 c3        1 MOL     -0.380846
    136 C46       -10.1650    3.1670   -1.2100 c         1 MOL      0.771284
    137 O20        -9.6880    3.4250   -2.3230 o         1 MOL     -0.609134
    138 C47       -12.7550    3.3410   -1.5110 c3        1 MOL      0.001712
    139 C48       -13.8740    2.6040   -0.8320 c3        1 MOL      0.051792
    140 C49       -13.1600    2.0570    0.4510 c3        1 MOL     -0.243702
    141 H60       -11.6220    1.6110   -1.9460 h1        1 MOL      0.134277
    142 H61       -12.6090    4.4030   -1.3630 hc        1 MOL      0.033356
    143 H62       -12.9560    3.2670   -2.5840 hc        1 MOL      0.033356
    144 H63       -14.7910    3.1820   -0.6690 hc        1 MOL      0.006143
    145 H64       -14.1920    1.7250   -1.3930 hc        1 MOL      0.006143
    146 H65       -13.0650    2.7450    1.2870 h1        1 MOL      0.080061
    147 H66       -13.7930    1.2030    0.6760 h1        1 MOL      0.080061
    148 N13        -9.4830    3.4240   -0.1290 n         1 MOL     -0.548015
    149 C50        -8.0890    3.9420   -0.1430 c3        1 MOL      0.238714
    150 C51        -7.9080    5.2400   -0.9400 c         1 MOL      0.275899
    151 O21        -8.4390    6.3150   -0.5850 o         1 MOL     -0.538229
    152 C52        -7.6460    4.1230    1.3300 c3        1 MOL      0.107173
    153 C53        -7.5040    2.7990    2.0540 c3        1 MOL      0.006564
    154 C54        -7.0400    3.0250    3.5160 c         1 MOL      0.622835
    155 O22        -7.8010    2.6440    4.4950 o         1 MOL     -0.678255
    156 O23        -5.9360    3.6130    3.7230 o         1 MOL     -0.678255
    157 H67        -9.7640    3.0720    0.7760 hn        1 MOL      0.288853
    158 H68        -7.3430    3.2270   -0.4730 h1        1 MOL      0.073295
    159 H69        -8.3900    4.7180    1.8530 hc        1 MOL     -0.020601
    160 H70        -6.7070    4.6700    1.3980 hc        1 MOL     -0.020601
    161 H71        -6.7290    2.2100    1.5600 hc        1 MOL     -0.089368
    162 H72        -8.4080    2.2100    1.9250 hc        1 MOL     -0.089368
    163 N14        -7.3570    5.2170   -2.1920 n         1 MOL     -0.189082
    164 C55        -6.6570    4.1450   -2.9460 c3        1 MOL     -0.250546
    165 H73        -7.3590    3.3420   -3.1700 h1        1 MOL      0.104317
    166 H74        -6.2640    4.5530   -3.8780 h1        1 MOL      0.104317
    167 H75        -5.8370    3.7540   -2.3450 h1        1 MOL      0.104317
    168 H76        -7.3110    6.1310   -2.6160 hn        1 MOL      0.225227
    169 Ca1         8.1830   -0.1960   -1.9960 Ca        1 MOL      1.792160
    170 O24        10.1400   -2.1490   -2.0660 oh        1 MOL     -0.812580
    171 H77        11.0130   -1.9730   -2.4230 ho        1 MOL      0.394792
    172 H78        10.0360   -3.0920   -2.1610 ho        1 MOL      0.394792
    173 O25         9.1870   -0.0590   -4.3460 oh        1 MOL     -0.812580
    174 H79         9.2900    0.4970   -5.1110 ho        1 MOL      0.394792
    175 H80         9.6610   -0.8620   -4.5690 ho        1 MOL      0.394792
    176 O26         6.0960    0.6900   -3.2140 oh        1 MOL     -0.812580
    177 H81         5.2500    0.9960   -2.8980 ho        1 MOL      0.394792
    178 H82         6.1370    0.9760   -4.1300 ho        1 MOL      0.394792
@<TRIPOS>BOND
     1    1    2 1   
     2    1    4 1   
     3    1    5 1   
     4    1    6 1   
     5    2    3 2   
     6    2    7 1   
     7    7    8 1   
     8    7   15 1   
     9    8    9 1   
    10    8   11 1   
    11    8   16 1   
    12    9   10 2   
    13    9   19 1   
    14   11   12 1   
    15   11   17 1   
    16   11   18 1   
    17   12   13 1   
    18   12   14 1   
    19   19   20 1   
    20   19   24 1   
    21   20   21 1   
    22   20   23 1   
    23   20   25 1   
    24   21   22 2   
    25   21   29 1   
    26   23   26 1   
    27   23   27 1   
    28   23   28 1   
    29   29   30 1   
    30   29   37 1   
    31   30   31 1   
    32   30   33 1   
    33   30   38 1   
    34   31   32 2   
    35   31   41 1   
    36   33   34 1   
    37   33   39 1   
    38   33   40 1   
    39   34   35 1   
    40   34   36 1   
    41   41   42 1   
    42   41   45 1   
    43   42   43 1   
    44   42   46 1   
    45   42   47 1   
    46   43   44 2   
    47   43   48 1   
    48   48   49 1   
    49   48   56 1   
    50   49   50 1   
    51   49   52 1   
    52   49   57 1   
    53   50   51 2   
    54   50   62 1   
    55   52   53 1   
    56   52   58 1   
    57   52   59 1   
    58   53   54 1   
    59   53   55 2   
    60   54   60 1   
    61   54   61 1   
    62   62   63 1   
    63   62   66 1   
    64   63   64 1   
    65   63   67 1   
    66   63   68 1   
    67   64   65 2   
    68   64   69 1   
    69   69   70 1   
    70   69   76 1   
    71   70   71 1   
    72   70   73 1   
    73   70   77 1   
    74   71   72 2   
    75   71   83 1   
    76   73   74 1   
    77   73   75 1   
    78   73   78 1   
    79   74   80 1   
    80   74   81 1   
    81   74   82 1   
    82   75   79 1   
    83   83   84 1   
    84   83   91 1   
    85   84   85 1   
    86   84   87 1   
    87   84   92 1   
    88   85   86 2   
    89   85  102 1   
    90   87   88 1   
    91   87   89 1   
    92   87   93 1   
    93   88   90 1   
    94   88   94 1   
    95   88   95 1   
    96   89   96 1   
    97   89   97 1   
    98   89   98 1   
    99   90   99 1   
   100   90  100 1   
   101   90  101 1   
   102  102  103 1   
   103  102  110 1   
   104  103  104 1   
   105  103  106 1   
   106  103  111 1   
   107  104  105 2   
   108  104  114 1   
   109  106  107 1   
   110  106  112 1   
   111  106  113 1   
   112  107  108 1   
   113  107  109 1   
   114  114  115 1   
   115  114  125 1   
   116  115  116 1   
   117  115  118 1   
   118  115  126 1   
   119  116  117 2   
   120  116  134 1   
   121  118  119 1   
   122  118  127 1   
   123  118  128 1   
   124  119  120 ar  
   125  119  121 ar  
   126  120  122 ar  
   127  120  129 1   
   128  121  123 ar  
   129  121  130 1   
   130  122  124 ar  
   131  122  131 1   
   132  123  124 ar  
   133  123  132 1   
   134  124  133 1   
   135  134  135 1   
   136  134  140 1   
   137  135  136 1   
   138  135  138 1   
   139  135  141 1   
   140  136  137 2   
   141  136  148 1   
   142  138  139 1   
   143  138  142 1   
   144  138  143 1   
   145  139  140 1   
   146  139  144 1   
   147  139  145 1   
   148  140  146 1   
   149  140  147 1   
   150  148  149 1   
   151  148  157 1   
   152  149  150 1   
   153  149  152 1   
   154  149  158 1   
   155  150  151 2   
   156  150  163 1   
   157  152  153 1   
   158  152  159 1   
   159  152  160 1   
   160  153  154 1   
   161  153  161 1   
   162  153  162 1   
   163  154  155 1   
   164  154  156 1   
   165  163  164 1   
   166  163  168 1   
   167  164  165 1   
   168  164  166 1   
   169  164  167 1   
   170  170  171 1   
   171  170  172 1   
   172  173  174 1   
   173  173  175 1   
   174  176  177 1   
   175  176  178 1   
@<TRIPOS>SUBSTRUCTURE
     1 MOL         1 TEMP              0 ****  ****    0 ROOT
