@<TRIPOS>MOLECULE
MOL
  192   187     1     0     0
SMALL
resp


@<TRIPOS>ATOM
      1 C1         10.4580    0.6240    1.1250 c3        1 MOL     -0.425389
      2 C2          9.2080    0.7750    0.2420 c         1 MOL      0.654863
      3 O1          8.2160    1.5380    0.5550 o         1 MOL     -0.640815
      4 H1         10.2730    1.0800    2.0980 hc        1 MOL      0.109256
      5 H2         10.6850   -0.4340    1.2570 hc        1 MOL      0.109256
      6 H3         11.3030    1.1200    0.6470 hc        1 MOL      0.109256
      7 N1          8.9730   -0.1620   -0.6790 n         1 MOL     -0.403920
      8 C3          7.7510   -0.3250   -1.4660 c3        1 MOL     -0.092094
      9 C4          6.9340   -1.6910   -1.1310 c         1 MOL      0.487943
     10 O2          6.6930   -2.4950   -2.0050 o         1 MOL     -0.419982
     11 C5          8.0390   -0.2500   -3.0160 c3        1 MOL     -0.262362
     12 C6          9.2670   -0.9300   -3.5380 c         1 MOL      0.766348
     13 O3          9.7500   -0.5960   -4.6090 o         1 MOL     -0.643567
     14 O4          9.7360   -1.8920   -2.8630 o         1 MOL     -0.643567
     15 H4          9.7440   -0.8050   -0.7910 hn        1 MOL      0.240333
     16 H5          7.1550    0.5520   -1.2170 h1        1 MOL      0.166542
     17 H6          8.3050    0.7990   -3.1190 hc        1 MOL      0.086038
     18 H7          7.1620   -0.4490   -3.6390 hc        1 MOL      0.086038
     19 N2          6.7200   -1.9310    0.1360 n         1 MOL     -0.324280
     20 C7          6.2440   -3.1770    0.6420 c3        1 MOL      0.055130
     21 C8          4.7300   -3.4820    0.2670 c         1 MOL      0.422563
     22 O5          4.4940   -4.5370   -0.2670 o         1 MOL     -0.493902
     23 C9          6.5550   -3.4220    2.2080 c3        1 MOL     -0.069212
     24 C10         8.0020   -3.2190    2.4510 c3        1 MOL      0.142766
     25 C11         8.4470   -3.6240    3.8820 c3        1 MOL     -0.007611
     26 C12         9.9850   -3.3480    4.0390 c3        1 MOL      0.027450
     27 N3         10.4760   -4.1050    5.2190 n4        1 MOL     -0.163802
     28 H8          7.0620   -1.2450    0.7890 hn        1 MOL      0.233878
     29 H9          6.7870   -3.9430    0.0910 h1        1 MOL      0.079932
     30 H10         6.3240   -4.4630    2.4630 hc        1 MOL      0.027970
     31 H11         5.9790   -2.7700    2.8620 hc        1 MOL      0.027970
     32 H12         8.1340   -2.1400    2.3690 hc        1 MOL     -0.022003
     33 H13         8.6160   -3.6830    1.6760 hc        1 MOL     -0.022003
     34 H14         8.1530   -4.6530    4.0460 hc        1 MOL      0.012012
     35 H15         7.8680   -3.0040    4.5550 hc        1 MOL      0.012012
     36 H16        10.2260   -2.2960    4.1070 hx        1 MOL      0.069772
     37 H17        10.4560   -3.7230    3.1410 hx        1 MOL      0.069772
     38 H18        11.3850   -3.8540    5.5810 hn        1 MOL      0.227605
     39 H19         9.8660   -3.9450    6.0130 hn        1 MOL      0.227605
     40 H20        10.5880   -5.0960    5.0880 hn        1 MOL      0.227605
     41 N4          3.6810   -2.5620    0.4810 n         1 MOL     -0.386663
     42 C13         3.6060   -1.3220    1.1670 c3        1 MOL      0.066385
     43 C14         3.7850   -0.1620    0.2360 c         1 MOL      0.112972
     44 O6          3.8230   -0.3470   -1.0040 o         1 MOL     -0.388189
     45 C15         2.2140   -1.3540    1.8860 c3        1 MOL     -0.276695
     46 C16         1.0630   -1.9270    1.0110 c         1 MOL      0.506689
     47 O7          0.9150   -1.4500   -0.1170 o         1 MOL     -0.560025
     48 O8          0.2830   -2.7150    1.5490 o         1 MOL     -0.560025
     49 H21         2.8010   -2.7780    0.0280 hn        1 MOL      0.368614
     50 H22         4.3890   -1.3060    1.9210 h1        1 MOL      0.076174
     51 H23         1.9650   -0.3090    2.0720 hc        1 MOL      0.078945
     52 H24         2.5510   -1.9480    2.7390 hc        1 MOL      0.078945
     53 N5          3.8820    0.9890    0.7620 n         1 MOL     -0.228894
     54 C17         3.8770    2.2970    0.0580 c3        1 MOL      0.022816
     55 C18         2.6290    2.7370   -0.7210 c         1 MOL      0.489455
     56 O9          1.5790    2.1080   -0.7490 o         1 MOL     -0.546372
     57 H25         3.8280    1.0530    1.7670 hn        1 MOL      0.242414
     58 H26         4.7500    2.3130   -0.5870 h1        1 MOL      0.063697
     59 H27         4.1320    3.0160    0.8310 h1        1 MOL      0.063697
     60 N6          2.8150    3.7660   -1.4740 n         1 MOL     -0.375146
     61 C19         1.8500    4.5050   -2.2330 c3        1 MOL      0.253239
     62 C20         2.2400    6.0590   -2.2850 c         1 MOL      0.451602
     63 O10         3.4250    6.4030   -2.1780 o         1 MOL     -0.522972
     64 C21         1.6360    3.9650   -3.6940 c3        1 MOL     -0.230451
     65 C22         1.3700    2.4680   -3.7170 c         1 MOL      0.759550
     66 O11         2.2320    1.7140   -4.1650 o         1 MOL     -0.686687
     67 O12         0.2520    2.1290   -3.3870 o         1 MOL     -0.686687
     68 H28         3.6910    4.2150   -1.2640 hn        1 MOL      0.232496
     69 H29         0.9080    4.4580   -1.6940 h1        1 MOL     -0.017293
     70 H30         2.4360    4.3470   -4.3390 hc        1 MOL      0.044977
     71 H31         0.7260    4.4070   -4.0940 hc        1 MOL      0.044977
     72 N7          1.3260    7.0010   -2.3910 n         1 MOL     -0.445725
     73 C23        -0.1400    6.7900   -2.5850 c3        1 MOL     -0.021628
     74 C24        -0.8180    6.1170   -1.3130 c         1 MOL      0.635336
     75 O13        -0.3350    6.2610   -0.2050 o         1 MOL     -0.533479
     76 H32         1.6590    7.9530   -2.4140 hn        1 MOL      0.324505
     77 H33        -0.3330    6.1530   -3.4480 h1        1 MOL      0.061946
     78 H34        -0.7500    7.6820   -2.7510 h1        1 MOL      0.061946
     79 N8         -1.9300    5.3870   -1.5030 n         1 MOL     -0.606460
     80 C25        -2.7020    4.7770   -0.4320 c3        1 MOL     -0.018939
     81 C26        -1.9720    3.6710    0.3210 c         1 MOL      0.769351
     82 O14        -1.3340    2.7840   -0.2680 o         1 MOL     -0.580904
     83 C27        -4.0840    4.3080   -0.9990 c3        1 MOL      0.220997
     84 C28        -4.9570    3.5110   -0.0060 c3        1 MOL     -0.521569
     85 O15        -3.9510    3.4290   -2.0660 oh        1 MOL     -0.577392
     86 H35        -2.1750    5.0990   -2.4480 hn        1 MOL      0.328358
     87 H36        -2.9180    5.5840    0.2680 h1        1 MOL      0.091478
     88 H37        -4.5530    5.1950   -1.4240 h1        1 MOL      0.055938
     89 H38        -4.8160    3.3630   -2.4850 ho        1 MOL      0.405410
     90 H39        -5.8390    3.1250   -0.5150 hc        1 MOL      0.135058
     91 H40        -4.3970    2.6950    0.4570 hc        1 MOL      0.135058
     92 H41        -5.3450    4.2190    0.7270 hc        1 MOL      0.135058
     93 N9         -2.0240    3.7330    1.6320 n         1 MOL     -0.614387
     94 C29        -1.2060    2.9320    2.5870 c3        1 MOL      0.222830
     95 C30        -1.3780    1.4470    2.3330 c         1 MOL      0.302985
     96 O16        -0.7320    0.8210    1.4730 o         1 MOL     -0.500489
     97 C31         0.2400    3.4000    2.6110 c3        1 MOL     -0.015595
     98 C32         0.4450    4.8240    3.0930 c3        1 MOL      0.076477
     99 C33         1.0420    2.4380    3.5130 c3        1 MOL     -0.362167
    100 C34        -0.1200    5.4460    4.3890 c3        1 MOL     -0.239065
    101 H42        -2.5370    4.5430    1.9460 hn        1 MOL      0.299876
    102 H43        -1.5930    3.0760    3.5950 h1        1 MOL      0.014115
    103 H44         0.6400    3.4200    1.6070 hc        1 MOL      0.074902
    104 H45         0.0670    5.4220    2.2690 hc        1 MOL      0.011100
    105 H46         1.5160    5.0250    3.0240 hc        1 MOL      0.011100
    106 H47         1.9240    2.8690    3.9720 hc        1 MOL      0.100420
    107 H48         0.4550    2.0430    4.3360 hc        1 MOL      0.100420
    108 H49         1.4010    1.5730    2.9450 hc        1 MOL      0.100420
    109 H50        -0.2240    6.5230    4.2300 hc        1 MOL      0.057623
    110 H51        -1.1570    5.1420    4.4440 hc        1 MOL      0.057623
    111 H52         0.4670    5.1170    5.2440 hc        1 MOL      0.057623
    112 N10        -2.2780    0.8690    3.0610 n         1 MOL     -0.068206
    113 C35        -2.6910   -0.6120    3.0710 c3        1 MOL     -0.342060
    114 C36        -4.2340   -0.7990    3.1940 c         1 MOL      0.404076
    115 O17        -4.7600   -1.8820    3.4620 o         1 MOL     -0.532279
    116 C37        -1.8150   -1.4530    4.0870 c3        1 MOL      0.608539
    117 C38        -1.9170   -0.9090    5.4410 c3        1 MOL     -0.318417
    118 O18        -0.4710   -1.4360    3.7650 oh        1 MOL     -0.624994
    119 H53        -2.6700    1.4420    3.7920 hn        1 MOL      0.178453
    120 H54        -2.4540   -1.0030    2.0840 h1        1 MOL      0.192529
    121 H55        -2.1520   -2.4880    4.0780 h1        1 MOL     -0.025609
    122 H56        -0.2530   -1.8850    2.9410 ho        1 MOL      0.319477
    123 H57        -1.4290   -1.6340    6.1020 hc        1 MOL      0.062755
    124 H58        -1.4940    0.0890    5.4530 hc        1 MOL      0.062755
    125 H59        -2.9530   -0.8680    5.7830 hc        1 MOL      0.062755
    126 N11        -5.0570    0.2290    2.9420 n         1 MOL     -0.091120
    127 C39        -6.4840    0.0680    2.9010 c3        1 MOL     -0.231369
    128 C40        -6.7510   -0.4820    1.4370 c         1 MOL      0.490081
    129 O19        -6.7360    0.2880    0.4690 o         1 MOL     -0.558278
    130 C41        -7.1330    1.4660    3.2110 c3        1 MOL      0.288989
    131 C42        -8.6820    1.4680    3.0460 c3        1 MOL     -0.602018
    132 O20        -6.8970    1.8620    4.5780 oh        1 MOL     -0.646003
    133 H60        -4.6560    1.1360    2.7450 hn        1 MOL      0.175270
    134 H61        -6.7290   -0.6670    3.6620 h1        1 MOL      0.132878
    135 H62        -6.6530    2.2870    2.6760 h1        1 MOL      0.119518
    136 H63        -7.6720    1.6540    5.1140 ho        1 MOL      0.414394
    137 H64        -9.0260    1.1310    2.0700 hc        1 MOL      0.163745
    138 H65        -9.1080    0.7850    3.7770 hc        1 MOL      0.163745
    139 H66        -8.9950    2.4970    3.2190 hc        1 MOL      0.163745
    140 N12        -6.8940   -1.8100    1.3660 n         1 MOL     -0.197020
    141 C43        -6.6290   -2.6380    0.1570 c3        1 MOL      0.003895
    142 C44        -5.1560   -2.5270   -0.3700 c         1 MOL      0.470647
    143 O21        -4.5440   -1.4990    0.0220 o         1 MOL     -0.482261
    144 C45        -7.7560   -2.4390   -0.8210 c3        1 MOL     -0.376786
    145 C46        -9.1540   -2.7070   -0.2070 c3        1 MOL      0.277327
    146 C47       -10.2900   -1.9620   -0.8670 c3        1 MOL     -0.134702
    147 C48       -10.3540   -2.3350   -2.3660 c3        1 MOL      0.050077
    148 N13       -11.1710   -1.3970   -3.1080 n4        1 MOL     -0.051606
    149 H67        -6.9400   -2.3720    2.2020 hn        1 MOL      0.236118
    150 H68        -6.6390   -3.6790    0.4710 h1        1 MOL      0.045189
    151 H69        -7.4870   -2.9930   -1.7270 hc        1 MOL      0.120911
    152 H70        -7.6780   -1.3970   -1.1340 hc        1 MOL      0.120911
    153 H71        -9.1300   -2.4210    0.8470 hc        1 MOL     -0.039665
    154 H72        -9.3920   -3.7550   -0.3850 hc        1 MOL     -0.039665
    155 H73       -10.2200   -0.8750   -0.7780 hc        1 MOL      0.037027
    156 H74       -11.1880   -2.4260   -0.4460 hc        1 MOL      0.037027
    157 H75       -10.7730   -3.3340   -2.4510 hx        1 MOL      0.060242
    158 H76        -9.3070   -2.3530   -2.6690 hx        1 MOL      0.060242
    159 H77       -11.2460   -1.5640   -4.0960 hn        1 MOL      0.182784
    160 H78       -12.1010   -1.5310   -2.7270 hn        1 MOL      0.182784
    161 H79       -10.9950   -0.4180   -2.9010 hn        1 MOL      0.182784
    162 N14        -4.6780   -3.5150   -1.1040 n         1 MOL     -0.389707
    163 C49        -3.3650   -3.4310   -1.9020 c3        1 MOL      0.162616
    164 C50        -2.2400   -2.8180   -1.0940 c         1 MOL      0.426808
    165 O22        -1.7900   -1.7800   -1.5580 o         1 MOL     -0.619901
    166 C51        -3.0910   -4.7880   -2.4790 c3        1 MOL      0.088736
    167 C52        -4.1190   -5.1540   -3.5950 c3        1 MOL     -0.256172
    168 C53        -3.9780   -6.5970   -4.0970 c         1 MOL      0.726870
    169 O23        -4.2890   -7.4810   -3.2960 o         1 MOL     -0.663174
    170 O24        -3.5690   -6.8400   -5.2480 o         1 MOL     -0.663174
    171 H80        -5.3230   -4.2880   -1.2410 hn        1 MOL      0.299697
    172 H81        -3.6140   -2.7360   -2.7060 h1        1 MOL      0.021334
    173 H82        -3.1080   -5.5680   -1.7120 hc        1 MOL      0.025476
    174 H83        -2.0640   -4.6920   -2.8230 hc        1 MOL      0.025476
    175 H84        -4.1190   -4.3990   -4.3830 hc        1 MOL      0.005439
    176 H85        -5.0970   -5.0470   -3.1280 hc        1 MOL      0.005439
    177 N15        -1.8700   -3.3520    0.0360 n         1 MOL     -0.244773
    178 C54        -2.2690   -4.6260    0.6540 c3        1 MOL     -0.035105
    179 H86        -1.7370   -5.4460    0.1710 h1        1 MOL      0.038966
    180 H87        -2.0220   -4.6090    1.7160 h1        1 MOL      0.038966
    181 H88        -3.3430   -4.7690    0.5330 h1        1 MOL      0.038966
    182 H89        -1.2080   -2.8050    0.5650 hn        1 MOL      0.283794
    183 Ca1        -0.4270    0.4870   -1.3320 Ca        1 MOL      1.800241
    184 O25        -2.0590    0.5240   -3.4040 oh        1 MOL     -0.929648
    185 H90        -2.6550   -0.2230   -3.4830 ho        1 MOL      0.435901
    186 H91        -2.1080    0.9680   -4.2560 ho        1 MOL      0.435901
    187 O26         1.3810   -0.7020   -3.1030 oh        1 MOL     -0.929648
    188 H92         2.1910   -1.2010   -3.0610 ho        1 MOL      0.435901
    189 H93         1.5780    0.0400   -3.6890 ho        1 MOL      0.435901
    190 O27        -2.9290    0.6320   -0.4730 oh        1 MOL     -0.929648
    191 H94        -3.4950   -0.1230   -0.3660 ho        1 MOL      0.435901
    192 H95        -3.4250    1.2390   -1.0350 ho        1 MOL      0.435901
@<TRIPOS>BOND
     1    1    2 1   
     2    1    4 1   
     3    1    5 1   
     4    1    6 1   
     5    2    3 2   
     6    2    7 1   
     7    7    8 1   
     8    7   15 1   
     9    8    9 1   
    10    8   11 1   
    11    8   16 1   
    12    9   10 2   
    13    9   19 1   
    14   11   12 1   
    15   11   17 1   
    16   11   18 1   
    17   12   13 1   
    18   12   14 1   
    19   19   20 1   
    20   19   28 1   
    21   20   21 1   
    22   20   23 1   
    23   20   29 1   
    24   21   22 2   
    25   21   41 1   
    26   23   24 1   
    27   23   30 1   
    28   23   31 1   
    29   24   25 1   
    30   24   32 1   
    31   24   33 1   
    32   25   26 1   
    33   25   34 1   
    34   25   35 1   
    35   26   27 1   
    36   26   36 1   
    37   26   37 1   
    38   27   38 1   
    39   27   39 1   
    40   27   40 1   
    41   41   42 1   
    42   41   49 1   
    43   42   43 1   
    44   42   45 1   
    45   42   50 1   
    46   43   44 2   
    47   43   53 1   
    48   45   46 1   
    49   45   51 1   
    50   45   52 1   
    51   46   47 1   
    52   46   48 1   
    53   53   54 1   
    54   53   57 1   
    55   54   55 1   
    56   54   58 1   
    57   54   59 1   
    58   55   56 2   
    59   55   60 1   
    60   60   61 1   
    61   60   68 1   
    62   61   62 1   
    63   61   64 1   
    64   61   69 1   
    65   62   63 2   
    66   62   72 1   
    67   64   65 1   
    68   64   70 1   
    69   64   71 1   
    70   65   66 1   
    71   65   67 1   
    72   72   73 1   
    73   72   76 1   
    74   73   74 1   
    75   73   77 1   
    76   73   78 1   
    77   74   75 2   
    78   74   79 1   
    79   79   80 1   
    80   79   86 1   
    81   80   81 1   
    82   80   83 1   
    83   80   87 1   
    84   81   82 2   
    85   81   93 1   
    86   83   84 1   
    87   83   85 1   
    88   83   88 1   
    89   84   90 1   
    90   84   91 1   
    91   84   92 1   
    92   85   89 1   
    93   93   94 1   
    94   93  101 1   
    95   94   95 1   
    96   94   97 1   
    97   94  102 1   
    98   95   96 2   
    99   95  112 1   
   100   97   98 1   
   101   97   99 1   
   102   97  103 1   
   103   98  100 1   
   104   98  104 1   
   105   98  105 1   
   106   99  106 1   
   107   99  107 1   
   108   99  108 1   
   109  100  109 1   
   110  100  110 1   
   111  100  111 1   
   112  112  113 1   
   113  112  119 1   
   114  113  114 1   
   115  113  116 1   
   116  113  120 1   
   117  114  115 2   
   118  114  126 1   
   119  116  117 1   
   120  116  118 1   
   121  116  121 1   
   122  117  123 1   
   123  117  124 1   
   124  117  125 1   
   125  118  122 1   
   126  126  127 1   
   127  126  133 1   
   128  127  128 1   
   129  127  130 1   
   130  127  134 1   
   131  128  129 2   
   132  128  140 1   
   133  130  131 1   
   134  130  132 1   
   135  130  135 1   
   136  131  137 1   
   137  131  138 1   
   138  131  139 1   
   139  132  136 1   
   140  140  141 1   
   141  140  149 1   
   142  141  142 1   
   143  141  144 1   
   144  141  150 1   
   145  142  143 2   
   146  142  162 1   
   147  144  145 1   
   148  144  151 1   
   149  144  152 1   
   150  145  146 1   
   151  145  153 1   
   152  145  154 1   
   153  146  147 1   
   154  146  155 1   
   155  146  156 1   
   156  147  148 1   
   157  147  157 1   
   158  147  158 1   
   159  148  159 1   
   160  148  160 1   
   161  148  161 1   
   162  162  163 1   
   163  162  171 1   
   164  163  164 1   
   165  163  166 1   
   166  163  172 1   
   167  164  165 2   
   168  164  177 1   
   169  166  167 1   
   170  166  173 1   
   171  166  174 1   
   172  167  168 1   
   173  167  175 1   
   174  167  176 1   
   175  168  169 1   
   176  168  170 1   
   177  177  178 1   
   178  177  182 1   
   179  178  179 1   
   180  178  180 1   
   181  178  181 1   
   182  184  185 1   
   183  184  186 1   
   184  187  188 1   
   185  187  189 1   
   186  190  191 1   
   187  190  192 1   
@<TRIPOS>SUBSTRUCTURE
     1 MOL         1 TEMP              0 ****  ****    0 ROOT
