@<TRIPOS>MOLECULE
MOL
  181   177     1     0     0
SMALL
resp


@<TRIPOS>ATOM
      1 C1          0.9140    6.9310   -2.7370 c3        1 MOL     -0.387667
      2 C2          2.3010    6.7050   -2.0210 c         1 MOL      0.699332
      3 O1          2.4560    7.1660   -0.8880 o         1 MOL     -0.577276
      4 H1          1.0640    7.5260   -3.6380 hc        1 MOL      0.092076
      5 H2          0.4830    5.9670   -3.0060 hc        1 MOL      0.092076
      6 H3          0.2380    7.4570   -2.0620 hc        1 MOL      0.092076
      7 N1          3.2250    5.9750   -2.6520 n         1 MOL     -0.587110
      8 C3          4.4930    5.6130   -1.9770 c3        1 MOL      0.095238
      9 C4          4.2590    4.6470   -0.8220 c         1 MOL      0.701699
     10 O2          3.3980    3.8110   -0.9040 o         1 MOL     -0.600958
     11 C5          5.5360    5.0770   -2.9940 c3        1 MOL     -0.190845
     12 C6          7.0340    5.2690   -2.5390 c         1 MOL      0.673580
     13 O3          7.6290    6.3200   -2.9280 o         1 MOL     -0.719508
     14 O4          7.5770    4.4160   -1.8030 o         1 MOL     -0.719508
     15 H4          2.9330    5.5430   -3.5170 hn        1 MOL      0.314294
     16 H5          4.8500    6.5510   -1.5550 h1        1 MOL      0.055991
     17 H6          5.4000    5.5520   -3.9690 hc        1 MOL      0.028850
     18 H7          5.3850    4.0210   -3.2160 hc        1 MOL      0.028850
     19 N2          5.1160    4.7560    0.1930 n         1 MOL     -0.710406
     20 C7          5.2080    3.8860    1.3240 c3        1 MOL      0.486466
     21 C8          3.9220    3.7860    2.1650 c         1 MOL      0.359074
     22 O5          3.0390    4.6660    2.1160 o         1 MOL     -0.527903
     23 C9          6.3460    4.3400    2.2130 c3        1 MOL     -0.427632
     24 H8          5.8390    5.4470    0.0830 hn        1 MOL      0.358392
     25 H9          5.4520    2.9250    0.8570 h1        1 MOL      0.050579
     26 H10         6.6050    3.6240    3.0010 hc        1 MOL      0.107853
     27 H11         7.2670    4.4950    1.6430 hc        1 MOL      0.107853
     28 H12         6.1750    5.3030    2.6910 hc        1 MOL      0.107853
     29 N3          3.7170    2.7750    2.9710 n         1 MOL     -0.311081
     30 C10         4.5690    1.6050    3.0920 c3        1 MOL     -0.110271
     31 C11         4.4240    0.5880    1.8990 c         1 MOL      0.427417
     32 O6          3.4070    0.6580    1.1410 o         1 MOL     -0.467138
     33 C12         4.4150    0.9370    4.4950 c3        1 MOL     -0.151905
     34 C13         2.9440    0.6760    4.7170 c         1 MOL      0.692834
     35 O7          2.3900    1.2350    5.6790 o         1 MOL     -0.682378
     36 O8          2.3070   -0.1190    3.9360 o         1 MOL     -0.682378
     37 H13         2.8320    2.8700    3.4460 hn        1 MOL      0.302309
     38 H14         5.6140    1.9220    3.1080 h1        1 MOL      0.053271
     39 H15         4.8050    1.4750    5.3530 hc        1 MOL      0.047976
     40 H16         4.8680   -0.0590    4.5160 hc        1 MOL      0.047976
     41 N4          5.3340   -0.3440    1.8560 n         1 MOL     -0.509125
     42 C14         5.4240   -1.4180    0.7990 c3        1 MOL      0.034511
     43 C15         6.6280   -1.3480   -0.1630 c         1 MOL      0.675883
     44 O9          7.1830   -0.3010   -0.3220 o         1 MOL     -0.528465
     45 H17         5.9380   -0.4460    2.6590 hn        1 MOL      0.332262
     46 H18         4.5230   -1.5740    0.2190 h1        1 MOL      0.087251
     47 H19         5.4840   -2.3320    1.3960 h1        1 MOL      0.087251
     48 N5          7.0600   -2.3610   -0.8710 n         1 MOL     -0.715700
     49 C16         6.7510   -3.8260   -0.6550 c3        1 MOL      0.009645
     50 C17         5.8330   -4.3860   -1.7350 c         1 MOL      0.578389
     51 O10         5.5760   -5.5710   -1.6190 o         1 MOL     -0.491555
     52 C18         8.0690   -4.5100   -0.4840 c3        1 MOL     -0.226318
     53 C19         9.0160   -4.0150    0.6150 c         1 MOL      0.751919
     54 N6         10.1460   -3.5060    0.2460 n         1 MOL     -0.833681
     55 O11         8.7300   -4.1300    1.7950 o         1 MOL     -0.565235
     56 H20         7.9090   -2.2000   -1.4030 hn        1 MOL      0.348897
     57 H21         6.1860   -3.9820    0.2590 h1        1 MOL      0.096592
     58 H22         8.5850   -4.2970   -1.4130 hc        1 MOL      0.059446
     59 H23         7.8690   -5.5790   -0.4090 hc        1 MOL      0.059446
     60 H24        10.3360   -3.3230   -0.7320 hn        1 MOL      0.383735
     61 H25        10.7380   -3.0740    0.9470 hn        1 MOL      0.383735
     62 N7          5.3520   -3.6110   -2.7210 n         1 MOL     -0.343692
     63 C20         4.3820   -4.0580   -3.8100 c3        1 MOL     -0.317297
     64 C21         3.1070   -4.7330   -3.3190 c         1 MOL      0.638556
     65 O12         2.6200   -5.6580   -3.8810 o         1 MOL     -0.535491
     66 H26         5.4460   -2.6220   -2.5560 hn        1 MOL      0.287127
     67 H27         4.9130   -4.8120   -4.3970 h1        1 MOL      0.154687
     68 H28         4.1180   -3.1780   -4.3920 h1        1 MOL      0.154687
     69 N8          2.6130   -4.3660   -2.1290 n         1 MOL     -0.420218
     70 C22         1.3540   -4.8620   -1.5230 c3        1 MOL      0.035073
     71 C23         0.2200   -3.8230   -1.4540 c         1 MOL      0.589377
     72 O13         0.5130   -2.6410   -1.5410 o         1 MOL     -0.605441
     73 C24         1.6490   -5.4880   -0.1180 c3        1 MOL      0.312030
     74 C25         2.4320   -6.7540   -0.3720 c3        1 MOL     -0.361364
     75 O14         2.4990   -4.5670    0.6460 oh        1 MOL     -0.701523
     76 H29         2.9980   -3.5780   -1.6420 hn        1 MOL      0.281523
     77 H30         0.9600   -5.6410   -2.1800 h1        1 MOL      0.050422
     78 H31         0.6760   -5.7400    0.3090 h1        1 MOL      0.035367
     79 H32         2.6940   -4.9920    1.4830 ho        1 MOL      0.439527
     80 H33         3.5080   -6.6350   -0.5150 hc        1 MOL      0.099795
     81 H34         2.1870   -7.5010    0.3720 hc        1 MOL      0.099795
     82 H35         2.0750   -7.1640   -1.3140 hc        1 MOL      0.099795
     83 N9         -1.0160   -4.2960   -1.1710 n         1 MOL     -0.411828
     84 C26        -2.2340   -3.5500   -0.9780 c3        1 MOL     -0.317039
     85 C27        -2.7690   -3.6200    0.4750 c         1 MOL      0.503484
     86 O15        -2.9100   -4.6790    1.1300 o         1 MOL     -0.535792
     87 C28        -3.2630   -3.8720   -2.1110 c3        1 MOL      0.047664
     88 C29        -4.7190   -3.4890   -1.7370 c3        1 MOL      0.281779
     89 C30        -2.7930   -3.1570   -3.3930 c3        1 MOL     -0.268398
     90 C31        -5.7890   -3.5200   -2.7750 c3        1 MOL     -0.089786
     91 H36        -1.1260   -5.3030   -1.1040 hn        1 MOL      0.277309
     92 H37        -1.9490   -2.5070   -1.0920 h1        1 MOL      0.374764
     93 H38        -3.1610   -4.9260   -2.3690 hc        1 MOL      0.035556
     94 H39        -4.6430   -2.4780   -1.3190 hc        1 MOL     -0.044686
     95 H40        -5.0100   -4.2000   -0.9650 hc        1 MOL     -0.044686
     96 H41        -3.1370   -3.6730   -4.2890 hc        1 MOL      0.060292
     97 H42        -2.9450   -2.0770   -3.4020 hc        1 MOL      0.060292
     98 H43        -1.7140   -3.2190   -3.4610 hc        1 MOL      0.060292
     99 H44        -5.5660   -2.8200   -3.5930 hc        1 MOL     -0.015871
    100 H45        -5.8030   -4.5550   -3.0990 hc        1 MOL     -0.015871
    101 H46        -6.7270   -3.1800   -2.3250 hc        1 MOL     -0.015871
    102 N10        -3.0010   -2.4000    1.0450 n         1 MOL     -0.145604
    103 C32        -3.8630   -2.2620    2.3240 c3        1 MOL     -0.037878
    104 C33        -5.2510   -1.7620    2.0650 c         1 MOL      0.519415
    105 O16        -6.1000   -1.9900    2.9350 o         1 MOL     -0.556893
    106 C34        -3.1520   -1.3600    3.3420 c3        1 MOL      0.075306
    107 C35        -1.7030   -1.7360    3.5510 c         1 MOL      0.606733
    108 O17        -1.4420   -2.7530    4.1840 o         1 MOL     -0.690761
    109 O18        -0.8140   -1.0740    2.9650 o         1 MOL     -0.690761
    110 H47        -2.8620   -1.5220    0.5640 hn        1 MOL     -0.015970
    111 H48        -3.9470   -3.2710    2.7290 h1        1 MOL      0.100482
    112 H49        -3.5740   -1.4650    4.3470 hc        1 MOL     -0.020363
    113 H50        -3.1700   -0.3050    3.0350 hc        1 MOL     -0.020363
    114 N11        -5.4620   -0.9650    1.0600 n         1 MOL     -0.958951
    115 C36        -6.7450   -0.1860    0.8890 c3        1 MOL      0.557359
    116 C37        -6.6320    1.2380    0.2170 c         1 MOL      0.139188
    117 O19        -7.1920    1.3860   -0.9090 o         1 MOL     -0.503053
    118 C38        -7.6190   -1.2070    0.1680 c3        1 MOL     -0.446330
    119 C39        -9.0880   -1.0500    0.4670 ca        1 MOL      0.103600
    120 C40        -9.9430   -0.3160   -0.3990 ca        1 MOL     -0.092502
    121 C41        -9.6690   -1.6390    1.6700 ca        1 MOL     -0.092502
    122 C42       -11.3450   -0.2500   -0.1450 ca        1 MOL     -0.207485
    123 C43       -11.0450   -1.6500    1.8690 ca        1 MOL     -0.207485
    124 C44       -11.9100   -0.8080    1.0530 ca        1 MOL     -0.089604
    125 H51        -4.6430   -0.5490    0.6360 hn        1 MOL      0.645379
    126 H52        -7.3030    0.0000    1.8050 h1        1 MOL     -0.009047
    127 H53        -7.3680   -2.1930    0.5690 hc        1 MOL      0.169963
    128 H54        -7.3740   -1.1680   -0.8880 hc        1 MOL      0.169963
    129 H55        -9.5630    0.1580   -1.2920 ha        1 MOL      0.120675
    130 H56        -9.0440   -2.3290    2.2280 ha        1 MOL      0.120675
    131 H57       -12.0390    0.3760   -0.6740 ha        1 MOL      0.119274
    132 H58       -11.5560   -1.9940    2.7580 ha        1 MOL      0.119274
    133 H59       -12.9330   -0.7330    1.3660 ha        1 MOL      0.099348
    134 N12        -6.0220    2.2220    0.8570 n         1 MOL      0.080193
    135 C45        -5.9090    3.5800    0.2580 c3        1 MOL      0.061629
    136 C46        -5.0540    3.5880   -1.0490 c         1 MOL      0.236459
    137 O20        -5.1150    4.4790   -1.8490 o         1 MOL     -0.445831
    138 C47        -5.3560    4.4680    1.3820 c3        1 MOL     -0.089252
    139 C48        -5.8300    3.7840    2.6390 c3        1 MOL     -0.255466
    140 C49        -5.8110    2.2850    2.3180 c3        1 MOL      0.009797
    141 H60        -6.8970    3.9010   -0.0780 h1        1 MOL      0.056308
    142 H61        -4.2770    4.4450    1.2780 hc        1 MOL      0.077991
    143 H62        -5.6560    5.5020    1.1810 hc        1 MOL      0.077991
    144 H63        -5.0990    3.9610    3.4220 hc        1 MOL      0.091124
    145 H64        -6.8700    4.0530    2.8300 hc        1 MOL      0.091124
    146 H65        -4.8530    1.7840    2.4900 h1        1 MOL      0.061961
    147 H66        -6.5940    1.8050    2.9090 h1        1 MOL      0.061961
    148 N13        -4.2890    2.4990   -1.2980 n         1 MOL     -0.030083
    149 C50        -3.6680    2.2380   -2.5920 c3        1 MOL     -0.142332
    150 C51        -4.7260    2.2720   -3.6780 c         1 MOL      0.331621
    151 O21        -4.7790    3.1020   -4.6100 o         1 MOL     -0.518674
    152 C52        -2.9220    0.9430   -2.6380 c3        1 MOL      0.262926
    153 C53        -1.7180    0.8440   -1.7650 c3        1 MOL     -0.510325
    154 C54        -2.0630    0.7870   -0.2900 c         1 MOL      0.665553
    155 O22        -1.3060    1.2870    0.5480 o         1 MOL     -0.661330
    156 O23        -3.0840    0.1940    0.0520 o         1 MOL     -0.661330
    157 H67        -4.1150    1.8290   -0.5570 hn        1 MOL      0.101643
    158 H68        -2.9680    3.0560   -2.8050 h1        1 MOL      0.115884
    159 H69        -2.5010    0.9410   -3.6460 hc        1 MOL     -0.064094
    160 H70        -3.6600    0.1990   -2.3490 hc        1 MOL     -0.064094
    161 H71        -1.1270    1.7240   -2.0010 hc        1 MOL      0.150240
    162 H72        -1.2120   -0.0610   -2.0820 hc        1 MOL      0.150240
    163 N14        -5.7680    1.4690   -3.5330 n         1 MOL     -0.046273
    164 C55        -6.7800    1.2520   -4.5430 c3        1 MOL     -0.404926
    165 H73        -6.6090    1.9290   -5.3800 h1        1 MOL      0.131588
    166 H74        -6.7280    0.2210   -4.8930 h1        1 MOL      0.131588
    167 H75        -7.7650    1.4430   -4.1170 h1        1 MOL      0.131588
    168 H76        -5.9580    0.9870   -2.6680 hn        1 MOL      0.221424
    169 Ca1         0.9310    0.4240    1.7460 Ca        1 MOL      1.738652
    170 O24         0.7410    2.5780    3.4010 oh        1 MOL     -0.912670
    171 H77         0.6330    3.4400    3.0080 ho        1 MOL      0.437619
    172 H78         0.4200    2.6790    4.2950 ho        1 MOL      0.437619
    173 O25         1.2340   -0.2870   -0.8190 oh        1 MOL     -0.912670
    174 H79         1.7330    0.1300   -1.5160 ho        1 MOL      0.437619
    175 H80         1.0220   -1.1570   -1.1650 ho        1 MOL      0.437619
    176 O26         1.2890    2.9990    0.7280 oh        1 MOL     -0.912670
    177 H81         0.7060    3.7590    0.6210 ho        1 MOL      0.437619
    178 H82         2.0850    3.2480    0.2660 ho        1 MOL      0.437619
    179 O27         1.9050   -2.0420    1.7720 oh        1 MOL     -0.912670
    180 H83         2.0440   -2.7250    1.1180 ho        1 MOL      0.437619
    181 H84         1.6110   -2.5170    2.5470 ho        1 MOL      0.437619
@<TRIPOS>BOND
     1    1    2 1   
     2    1    4 1   
     3    1    5 1   
     4    1    6 1   
     5    2    3 2   
     6    2    7 1   
     7    7    8 1   
     8    7   15 1   
     9    8    9 1   
    10    8   11 1   
    11    8   16 1   
    12    9   10 2   
    13    9   19 1   
    14   11   12 1   
    15   11   17 1   
    16   11   18 1   
    17   12   13 1   
    18   12   14 1   
    19   19   20 1   
    20   19   24 1   
    21   20   21 1   
    22   20   23 1   
    23   20   25 1   
    24   21   22 2   
    25   21   29 1   
    26   23   26 1   
    27   23   27 1   
    28   23   28 1   
    29   29   30 1   
    30   29   37 1   
    31   30   31 1   
    32   30   33 1   
    33   30   38 1   
    34   31   32 2   
    35   31   41 1   
    36   33   34 1   
    37   33   39 1   
    38   33   40 1   
    39   34   35 1   
    40   34   36 1   
    41   41   42 1   
    42   41   45 1   
    43   42   43 1   
    44   42   46 1   
    45   42   47 1   
    46   43   44 2   
    47   43   48 1   
    48   48   49 1   
    49   48   56 1   
    50   49   50 1   
    51   49   52 1   
    52   49   57 1   
    53   50   51 2   
    54   50   62 1   
    55   52   53 1   
    56   52   58 1   
    57   52   59 1   
    58   53   54 1   
    59   53   55 2   
    60   54   60 1   
    61   54   61 1   
    62   62   63 1   
    63   62   66 1   
    64   63   64 1   
    65   63   67 1   
    66   63   68 1   
    67   64   65 2   
    68   64   69 1   
    69   69   70 1   
    70   69   76 1   
    71   70   71 1   
    72   70   73 1   
    73   70   77 1   
    74   71   72 2   
    75   71   83 1   
    76   73   74 1   
    77   73   75 1   
    78   73   78 1   
    79   74   80 1   
    80   74   81 1   
    81   74   82 1   
    82   75   79 1   
    83   83   84 1   
    84   83   91 1   
    85   84   85 1   
    86   84   87 1   
    87   84   92 1   
    88   85   86 2   
    89   85  102 1   
    90   87   88 1   
    91   87   89 1   
    92   87   93 1   
    93   88   90 1   
    94   88   94 1   
    95   88   95 1   
    96   89   96 1   
    97   89   97 1   
    98   89   98 1   
    99   90   99 1   
   100   90  100 1   
   101   90  101 1   
   102  102  103 1   
   103  102  110 1   
   104  103  104 1   
   105  103  106 1   
   106  103  111 1   
   107  104  105 2   
   108  104  114 1   
   109  106  107 1   
   110  106  112 1   
   111  106  113 1   
   112  107  108 1   
   113  107  109 1   
   114  114  115 1   
   115  114  125 1   
   116  115  116 1   
   117  115  118 1   
   118  115  126 1   
   119  116  117 2   
   120  116  134 1   
   121  118  119 1   
   122  118  127 1   
   123  118  128 1   
   124  119  120 ar  
   125  119  121 ar  
   126  120  122 ar  
   127  120  129 1   
   128  121  123 ar  
   129  121  130 1   
   130  122  124 ar  
   131  122  131 1   
   132  123  124 ar  
   133  123  132 1   
   134  124  133 1   
   135  134  135 1   
   136  134  140 1   
   137  135  136 1   
   138  135  138 1   
   139  135  141 1   
   140  136  137 2   
   141  136  148 1   
   142  138  139 1   
   143  138  142 1   
   144  138  143 1   
   145  139  140 1   
   146  139  144 1   
   147  139  145 1   
   148  140  146 1   
   149  140  147 1   
   150  148  149 1   
   151  148  157 1   
   152  149  150 1   
   153  149  152 1   
   154  149  158 1   
   155  150  151 2   
   156  150  163 1   
   157  152  153 1   
   158  152  159 1   
   159  152  160 1   
   160  153  154 1   
   161  153  161 1   
   162  153  162 1   
   163  154  155 1   
   164  154  156 1   
   165  163  164 1   
   166  163  168 1   
   167  164  165 1   
   168  164  166 1   
   169  164  167 1   
   170  170  171 1   
   171  170  172 1   
   172  173  174 1   
   173  173  175 1   
   174  176  177 1   
   175  176  178 1   
   176  179  180 1   
   177  179  181 1   
@<TRIPOS>SUBSTRUCTURE
     1 MOL         1 TEMP              0 ****  ****    0 ROOT
