@<TRIPOS>MOLECULE
MOL
  195   189     1     0     0
SMALL
resp


@<TRIPOS>ATOM
      1 C1         -1.7060    8.0940    2.6020 c3        1 MOL     -0.342156
      2 C2         -1.7720    6.5560    2.3680 c         1 MOL      0.684917
      3 O1         -1.2630    5.7520    3.1290 o         1 MOL     -0.595928
      4 H1         -1.1210    8.3000    3.4980 hc        1 MOL      0.090823
      5 H2         -1.2360    8.5730    1.7430 hc        1 MOL      0.090823
      6 H3         -2.7150    8.4860    2.7300 hc        1 MOL      0.090823
      7 N1         -2.2630    6.0880    1.2610 n         1 MOL     -0.443402
      8 C3         -2.3350    4.6690    0.8590 c3        1 MOL     -0.244841
      9 C4         -0.9980    3.9470    0.6630 c         1 MOL      0.382612
     10 O2         -0.9670    2.7110    0.7540 o         1 MOL     -0.402036
     11 C5         -3.3090    4.5540   -0.2930 c3        1 MOL     -0.050474
     12 C6         -3.2290    5.3270   -1.5590 c         1 MOL      0.642251
     13 O3         -3.3590    6.6090   -1.5120 o         1 MOL     -0.711933
     14 O4         -3.1340    4.6890   -2.6840 o         1 MOL     -0.711933
     15 H4         -2.6360    6.8120    0.6640 hn        1 MOL      0.245891
     16 H5         -2.7570    4.1150    1.6940 h1        1 MOL      0.193110
     17 H6         -4.3560    4.5990   -0.0070 hc        1 MOL      0.086776
     18 H7         -3.2090    3.4960   -0.5480 hc        1 MOL      0.086776
     19 N2          0.0990    4.6520    0.2760 n         1 MOL     -0.276085
     20 C7          1.3150    4.0280   -0.2410 c3        1 MOL      0.016692
     21 C8          2.1310    3.5590    0.9170 c         1 MOL      0.545577
     22 O5          2.2090    4.1870    1.9430 o         1 MOL     -0.579534
     23 C9          2.1730    5.0830   -1.0540 c3        1 MOL      0.084415
     24 C10         1.6690    5.3090   -2.4940 c3        1 MOL     -0.288390
     25 C11         0.2430    5.8830   -2.5380 c3        1 MOL     -0.119911
     26 C12         0.0060    6.5230   -3.8960 c3        1 MOL      0.177629
     27 N3         -1.3180    7.0580   -3.9370 n4        1 MOL     -0.480603
     28 H8          0.1140    5.6450    0.4400 hn        1 MOL      0.253551
     29 H9          1.0410    3.2680   -0.9740 h1        1 MOL      0.131813
     30 H10         3.2040    4.7160   -1.0730 hc        1 MOL      0.006961
     31 H11         2.1470    5.9940   -0.4730 hc        1 MOL      0.006961
     32 H12         1.7260    4.3720   -3.0460 hc        1 MOL      0.091626
     33 H13         2.2690    6.0970   -2.9430 hc        1 MOL      0.091626
     34 H14        -0.0410    6.5830   -1.7580 hc        1 MOL      0.098970
     35 H15        -0.3930    4.9980   -2.6120 hc        1 MOL      0.098970
     36 H16         0.0900    5.7930   -4.7070 hx        1 MOL      0.038684
     37 H17         0.6640    7.3570   -4.1310 hx        1 MOL      0.038684
     38 H18        -1.9980    6.4580   -3.4920 hn        1 MOL      0.338450
     39 H19        -1.2870    7.9420   -3.4540 hn        1 MOL      0.338450
     40 H20        -1.5130    7.1420   -4.9240 hn        1 MOL      0.338450
     41 N4          2.9180    2.4730    0.9170 n         1 MOL     -0.605028
     42 C13         2.9010    1.3580   -0.0440 c3        1 MOL      0.353094
     43 C14         3.1780    1.6480   -1.5770 c         1 MOL      0.303430
     44 O6          2.2400    1.4820   -2.4280 o         1 MOL     -0.541813
     45 C15         1.7080    0.4740    0.1930 c3        1 MOL     -0.113075
     46 C16         1.4890   -0.1370    1.5840 c         1 MOL      0.521183
     47 O7          0.3090   -0.5550    1.8580 o         1 MOL     -0.639008
     48 O8          2.4860   -0.3040    2.3300 o         1 MOL     -0.639008
     49 H21         3.4710    2.4560    1.7560 hn        1 MOL      0.331334
     50 H22         3.7430    0.6850    0.1240 h1        1 MOL      0.015133
     51 H23         1.7870   -0.3460   -0.5180 hc        1 MOL      0.014314
     52 H24         0.8290    1.0400   -0.0930 hc        1 MOL      0.014314
     53 N5          4.3660    2.2200   -1.9510 n         1 MOL     -0.268805
     54 C17         5.6260    2.2890   -1.3050 c3        1 MOL     -0.003494
     55 C18         6.8350    1.6700   -2.0530 c         1 MOL      0.502109
     56 O9          6.6000    1.0330   -3.0810 o         1 MOL     -0.523419
     57 H25         4.5000    2.3130   -2.9530 hn        1 MOL      0.258081
     58 H26         5.5310    1.8590   -0.3040 h1        1 MOL      0.042759
     59 H27         5.7570    3.3490   -1.0930 h1        1 MOL      0.042759
     60 N6          8.0980    1.8220   -1.5830 n         1 MOL     -0.446518
     61 C19         8.4310    2.2780   -0.2490 c3        1 MOL     -0.010348
     62 C20         8.2010    1.1230    0.7880 c         1 MOL      0.379021
     63 O10         8.3880    1.2080    1.9900 o         1 MOL     -0.517858
     64 C21         9.8830    2.7930   -0.2790 c3        1 MOL     -0.165094
     65 C22        10.9370    1.8350   -0.9360 c         1 MOL      0.691016
     66 O11        10.8750    0.5740   -0.7790 o         1 MOL     -0.662915
     67 O12        11.8400    2.4350   -1.5820 o         1 MOL     -0.662915
     68 H28         8.8080    1.3170   -2.0860 hn        1 MOL      0.298295
     69 H29         7.8030    3.1060    0.0820 h1        1 MOL      0.076161
     70 H30        10.1630    3.2360    0.6830 hc        1 MOL      0.050176
     71 H31         9.7560    3.6420   -0.9400 hc        1 MOL      0.050176
     72 N7          7.8490   -0.0700    0.2540 n         1 MOL     -0.086863
     73 C23         7.3870   -1.2600    0.9240 c3        1 MOL     -0.195153
     74 C24         6.2580   -2.0040    0.1590 c         1 MOL      0.657980
     75 O13         5.6710   -1.5700   -0.8250 o         1 MOL     -0.512285
     76 H32         7.8020   -0.0750   -0.7590 hn        1 MOL      0.188819
     77 H33         7.0380   -1.0970    1.9420 h1        1 MOL      0.090756
     78 H34         8.2360   -1.9470    0.8420 h1        1 MOL      0.090756
     79 N8          6.0240   -3.2810    0.5160 n         1 MOL     -0.499058
     80 C25         5.1830   -4.2320   -0.2900 c3        1 MOL     -0.035793
     81 C26         3.6810   -3.8860   -0.3050 c         1 MOL      0.450103
     82 O14         3.1380   -3.3240    0.6520 o         1 MOL     -0.538431
     83 C27         5.2970   -5.6520    0.1980 c3        1 MOL      0.467597
     84 C28         4.9910   -6.0030    1.7090 c3        1 MOL     -0.280233
     85 O15         6.5550   -6.2340   -0.1990 oh        1 MOL     -0.639928
     86 H35         6.3630   -3.6300    1.4000 hn        1 MOL      0.297466
     87 H36         5.4430   -4.1600   -1.3390 h1        1 MOL      0.081727
     88 H37         4.6250   -6.2540   -0.4130 h1        1 MOL     -0.036358
     89 H38         6.3410   -6.7890   -0.9460 ho        1 MOL      0.383675
     90 H39         5.5360   -5.3700    2.4120 hc        1 MOL      0.073519
     91 H40         3.9530   -6.0430    2.0550 hc        1 MOL      0.073519
     92 H41         5.2980   -7.0300    1.8710 hc        1 MOL      0.073519
     93 N9          3.0120   -4.1650   -1.4380 n         1 MOL     -0.521149
     94 C29         1.6770   -3.7550   -1.6940 c3        1 MOL      0.176604
     95 C30         0.7120   -4.8600   -1.2870 c         1 MOL      0.451611
     96 O16         0.9030   -6.0050   -1.7400 o         1 MOL     -0.554515
     97 C31         1.5670   -3.3160   -3.1460 c3        1 MOL      0.027963
     98 C32         2.6000   -2.1800   -3.4190 c3        1 MOL      0.052620
     99 C33         0.1150   -2.8860   -3.5390 c3        1 MOL     -0.454575
    100 C34         2.3160   -1.4680   -4.7020 c3        1 MOL     -0.118891
    101 H42         3.4710   -4.7950   -2.0790 hn        1 MOL      0.296758
    102 H43         1.3830   -2.8680   -1.1270 h1        1 MOL     -0.018639
    103 H44         1.8950   -4.2080   -3.6890 hc        1 MOL      0.023285
    104 H45         3.5840   -2.6210   -3.5860 hc        1 MOL      0.052907
    105 H46         2.6880   -1.4160   -2.6510 hc        1 MOL      0.052907
    106 H47        -0.2530   -2.0480   -2.9460 hc        1 MOL      0.121030
    107 H48        -0.1260   -2.6180   -4.5720 hc        1 MOL      0.121030
    108 H49        -0.5680   -3.6760   -3.2400 hc        1 MOL      0.121030
    109 H50         2.1800   -2.1840   -5.5090 hc        1 MOL      0.028719
    110 H51         1.3730   -0.9230   -4.6540 hc        1 MOL      0.028719
    111 H52         3.2240   -0.9320   -4.9760 hc        1 MOL      0.028719
    112 N10        -0.3550   -4.5350   -0.5650 n         1 MOL     -0.237857
    113 C35        -1.2900   -5.4590    0.0020 c3        1 MOL     -0.078795
    114 C36        -2.6850   -5.1080   -0.5370 c         1 MOL      0.467137
    115 O17        -3.4930   -5.9940   -0.4090 o         1 MOL     -0.520993
    116 C37        -1.2240   -5.3630    1.5250 c3        1 MOL      0.228776
    117 C38        -1.8720   -4.0910    2.1540 c3        1 MOL     -0.249219
    118 O18         0.1050   -5.5510    1.8990 oh        1 MOL     -0.680566
    119 H53        -0.3150   -3.5950   -0.2070 hn        1 MOL      0.301753
    120 H54        -1.0590   -6.4970   -0.2280 h1        1 MOL      0.107219
    121 H55        -1.7870   -6.2000    1.9430 h1        1 MOL      0.045446
    122 H56         0.3910   -6.4440    1.6920 ho        1 MOL      0.453764
    123 H57        -1.8320   -4.1660    3.2460 hc        1 MOL      0.096334
    124 H58        -1.3880   -3.1480    1.8950 hc        1 MOL      0.096334
    125 H59        -2.9280   -4.1060    1.9060 hc        1 MOL      0.096334
    126 N11        -3.0090   -3.8890   -0.9950 n         1 MOL     -0.274602
    127 C39        -4.3260   -3.5550   -1.5950 c3        1 MOL     -0.096565
    128 C40        -5.5530   -3.3820   -0.6750 c         1 MOL      0.431270
    129 O19        -5.6450   -4.0100    0.3740 o         1 MOL     -0.442028
    130 C41        -4.6860   -4.4910   -2.7700 c3        1 MOL      0.420131
    131 C42        -3.6210   -4.5160   -3.9290 c3        1 MOL     -0.310410
    132 O20        -5.8980   -4.1810   -3.3790 oh        1 MOL     -0.726979
    133 H60        -2.3770   -3.0940   -1.0050 hn        1 MOL      0.225933
    134 H61        -4.2030   -2.5940   -2.0830 h1        1 MOL      0.060137
    135 H62        -4.8090   -5.5360   -2.4900 h1        1 MOL      0.042266
    136 H63        -5.9610   -4.7610   -4.1510 ho        1 MOL      0.432451
    137 H64        -4.0260   -5.1120   -4.7500 hc        1 MOL      0.063755
    138 H65        -3.4450   -3.5400   -4.3780 hc        1 MOL      0.063755
    139 H66        -2.7440   -4.9160   -3.4120 hc        1 MOL      0.063755
    140 N12        -6.4480   -2.4490   -0.9950 n         1 MOL     -0.217785
    141 C43        -7.6120   -2.1730   -0.1210 c3        1 MOL     -0.126241
    142 C44        -7.2630   -1.0890    0.8740 c         1 MOL      0.645064
    143 O21        -7.9040   -1.0090    1.9090 o         1 MOL     -0.538744
    144 C45        -8.7740   -1.7830   -1.1440 c3        1 MOL     -0.109771
    145 C46        -8.7730   -0.3720   -1.7840 c3        1 MOL      0.284327
    146 C47        -9.8930   -0.0840   -2.8710 c3        1 MOL      0.003828
    147 C48        -9.7070    1.3280   -3.3920 c3        1 MOL     -0.091236
    148 N13        -8.3670    1.5520   -4.0230 n4        1 MOL     -0.298049
    149 H67        -6.2710   -1.8660   -1.8020 hn        1 MOL      0.241309
    150 H68        -7.8850   -3.0650    0.4340 h1        1 MOL      0.173335
    151 H69        -9.7250   -1.8870   -0.6460 hc        1 MOL      0.025382
    152 H70        -8.7940   -2.5410   -1.9290 hc        1 MOL      0.025382
    153 H71        -7.8220   -0.4340   -2.3280 hc        1 MOL     -0.071082
    154 H72        -8.7530    0.4850   -1.1220 hc        1 MOL     -0.071082
    155 H73       -10.8960   -0.2400   -2.4600 hc        1 MOL      0.015286
    156 H74        -9.6890   -0.7360   -3.7220 hc        1 MOL      0.015286
    157 H75        -9.9050    2.0350   -2.5860 hx        1 MOL      0.120203
    158 H76       -10.4840    1.5420   -4.1280 hx        1 MOL      0.120203
    159 H77        -8.1650    0.8860   -4.7570 hn        1 MOL      0.288834
    160 H78        -8.4710    2.4930   -4.3720 hn        1 MOL      0.288834
    161 H79        -7.6800    1.5340   -3.2860 hn        1 MOL      0.288834
    162 N14        -6.1230   -0.3600    0.6350 n         1 MOL     -0.381994
    163 C49        -5.5840    0.6090    1.5180 c3        1 MOL     -0.142662
    164 C50        -6.3510    1.9460    1.5500 c         1 MOL      0.414643
    165 O22        -6.4220    2.6050    0.5310 o         1 MOL     -0.533125
    166 C51        -4.0730    0.5830    1.3990 c3        1 MOL      0.701016
    167 C52        -3.3190   -0.7400    1.7490 c3        1 MOL     -0.361714
    168 C53        -3.5190   -1.1730    3.1930 c         1 MOL      0.599967
    169 O23        -2.6370   -1.0070    4.0580 o         1 MOL     -0.705930
    170 O24        -4.5180   -1.9230    3.4420 o         1 MOL     -0.705930
    171 H80        -5.5660   -0.5300   -0.1980 hn        1 MOL      0.179001
    172 H81        -5.6280    0.1970    2.5290 h1        1 MOL      0.195441
    173 H82        -3.5970    1.2750    2.1020 hc        1 MOL     -0.221929
    174 H83        -3.7780    0.9050    0.4000 hc        1 MOL     -0.221929
    175 H84        -2.2830   -0.4510    1.6570 hc        1 MOL      0.011621
    176 H85        -3.7730   -1.4710    1.0700 hc        1 MOL      0.011621
    177 N15        -6.9820    2.2700    2.6870 n         1 MOL     -0.277644
    178 C54        -7.8360    3.4690    2.8420 c3        1 MOL     -0.181217
    179 H86        -8.8570    3.1610    3.0690 h1        1 MOL      0.099079
    180 H87        -7.4530    4.0850    3.6560 h1        1 MOL      0.099079
    181 H88        -7.8280    4.0430    1.9150 h1        1 MOL      0.099079
    182 H89        -6.9170    1.7090    3.5290 hn        1 MOL      0.248141
    183 Ca1        -0.0030   -0.8470    4.3640 Ca        1 MOL      1.793442
    184 O25         1.0660   -3.1340    2.9850 oh        1 MOL     -0.908474
    185 H90         0.5870   -3.9320    2.7800 ho        1 MOL      0.451822
    186 H91         1.7090   -3.0520    2.2770 ho        1 MOL      0.451822
    187 O26         2.3680   -1.3330    5.6160 oh        1 MOL     -0.908474
    188 H92         2.9310   -1.0150    6.3220 ho        1 MOL      0.451822
    189 H93         2.9680   -1.7580    5.0070 ho        1 MOL      0.451822
    190 O27        -1.0450    1.5380    3.5340 oh        1 MOL     -0.908474
    191 H94        -1.3200    1.3010    2.6390 ho        1 MOL      0.451822
    192 H95        -0.7850    2.4540    3.4730 ho        1 MOL      0.451822
    193 O28         1.7120    1.5080    4.7150 oh        1 MOL     -0.908474
    194 H96         2.6340    1.7270    4.7900 ho        1 MOL      0.451822
    195 H97         1.2760    2.3420    4.5550 ho        1 MOL      0.451822
@<TRIPOS>BOND
     1    1    2 1   
     2    1    4 1   
     3    1    5 1   
     4    1    6 1   
     5    2    3 2   
     6    2    7 1   
     7    7    8 1   
     8    7   15 1   
     9    8    9 1   
    10    8   11 1   
    11    8   16 1   
    12    9   10 2   
    13    9   19 1   
    14   11   12 1   
    15   11   17 1   
    16   11   18 1   
    17   12   13 1   
    18   12   14 1   
    19   19   20 1   
    20   19   28 1   
    21   20   21 1   
    22   20   23 1   
    23   20   29 1   
    24   21   22 2   
    25   21   41 1   
    26   23   24 1   
    27   23   30 1   
    28   23   31 1   
    29   24   25 1   
    30   24   32 1   
    31   24   33 1   
    32   25   26 1   
    33   25   34 1   
    34   25   35 1   
    35   26   27 1   
    36   26   36 1   
    37   26   37 1   
    38   27   38 1   
    39   27   39 1   
    40   27   40 1   
    41   41   42 1   
    42   41   49 1   
    43   42   43 1   
    44   42   45 1   
    45   42   50 1   
    46   43   44 2   
    47   43   53 1   
    48   45   46 1   
    49   45   51 1   
    50   45   52 1   
    51   46   47 1   
    52   46   48 1   
    53   53   54 1   
    54   53   57 1   
    55   54   55 1   
    56   54   58 1   
    57   54   59 1   
    58   55   56 2   
    59   55   60 1   
    60   60   61 1   
    61   60   68 1   
    62   61   62 1   
    63   61   64 1   
    64   61   69 1   
    65   62   63 2   
    66   62   72 1   
    67   64   65 1   
    68   64   70 1   
    69   64   71 1   
    70   65   66 1   
    71   65   67 1   
    72   72   73 1   
    73   72   76 1   
    74   73   74 1   
    75   73   77 1   
    76   73   78 1   
    77   74   75 2   
    78   74   79 1   
    79   79   80 1   
    80   79   86 1   
    81   80   81 1   
    82   80   83 1   
    83   80   87 1   
    84   81   82 2   
    85   81   93 1   
    86   83   84 1   
    87   83   85 1   
    88   83   88 1   
    89   84   90 1   
    90   84   91 1   
    91   84   92 1   
    92   85   89 1   
    93   93   94 1   
    94   93  101 1   
    95   94   95 1   
    96   94   97 1   
    97   94  102 1   
    98   95   96 2   
    99   95  112 1   
   100   97   98 1   
   101   97   99 1   
   102   97  103 1   
   103   98  100 1   
   104   98  104 1   
   105   98  105 1   
   106   99  106 1   
   107   99  107 1   
   108   99  108 1   
   109  100  109 1   
   110  100  110 1   
   111  100  111 1   
   112  112  113 1   
   113  112  119 1   
   114  113  114 1   
   115  113  116 1   
   116  113  120 1   
   117  114  115 2   
   118  114  126 1   
   119  116  117 1   
   120  116  118 1   
   121  116  121 1   
   122  117  123 1   
   123  117  124 1   
   124  117  125 1   
   125  118  122 1   
   126  126  127 1   
   127  126  133 1   
   128  127  128 1   
   129  127  130 1   
   130  127  134 1   
   131  128  129 2   
   132  128  140 1   
   133  130  131 1   
   134  130  132 1   
   135  130  135 1   
   136  131  137 1   
   137  131  138 1   
   138  131  139 1   
   139  132  136 1   
   140  140  141 1   
   141  140  149 1   
   142  141  142 1   
   143  141  144 1   
   144  141  150 1   
   145  142  143 2   
   146  142  162 1   
   147  144  145 1   
   148  144  151 1   
   149  144  152 1   
   150  145  146 1   
   151  145  153 1   
   152  145  154 1   
   153  146  147 1   
   154  146  155 1   
   155  146  156 1   
   156  147  148 1   
   157  147  157 1   
   158  147  158 1   
   159  148  159 1   
   160  148  160 1   
   161  148  161 1   
   162  162  163 1   
   163  162  171 1   
   164  163  164 1   
   165  163  166 1   
   166  163  172 1   
   167  164  165 2   
   168  164  177 1   
   169  166  167 1   
   170  166  173 1   
   171  166  174 1   
   172  167  168 1   
   173  167  175 1   
   174  167  176 1   
   175  168  169 1   
   176  168  170 1   
   177  177  178 1   
   178  177  182 1   
   179  178  179 1   
   180  178  180 1   
   181  178  181 1   
   182  184  185 1   
   183  184  186 1   
   184  187  188 1   
   185  187  189 1   
   186  190  191 1   
   187  190  192 1   
   188  193  194 1   
   189  193  195 1   
@<TRIPOS>SUBSTRUCTURE
     1 MOL         1 TEMP              0 ****  ****    0 ROOT
