@<TRIPOS>MOLECULE
MOL
  182   178     1     0     0
SMALL
resp


@<TRIPOS>ATOM
      1 C1          1.7300   -4.0350    6.3190 c3        1 MOL     -0.361229
      2 C2          1.7610   -3.8140    4.7780 c         1 MOL      0.734361
      3 O1          0.8020   -4.1500    4.0560 o         1 MOL     -0.600889
      4 H1          1.3260   -3.1470    6.8050 hc        1 MOL      0.105378
      5 H2          1.1010   -4.8940    6.5510 hc        1 MOL      0.105378
      6 H3          2.7420   -4.2170    6.6800 hc        1 MOL      0.105378
      7 N1          2.8770   -3.1650    4.3080 n         1 MOL     -0.645977
      8 C3          3.0040   -2.7990    2.9030 c3        1 MOL      0.017259
      9 C4          3.3420   -4.0220    1.9580 c         1 MOL      0.685147
     10 O2          4.4130   -4.5580    2.0890 o         1 MOL     -0.556837
     11 C5          3.9900   -1.6650    2.7350 c3        1 MOL     -0.028973
     12 C6          4.0370   -1.0270    1.3810 c         1 MOL      0.394348
     13 O3          4.3220    0.1720    1.3170 o         1 MOL     -0.558449
     14 O4          3.6530   -1.6850    0.3830 o         1 MOL     -0.558449
     15 H4          3.5400   -2.7720    4.9660 hn        1 MOL      0.351039
     16 H5          2.0470   -2.4120    2.5580 h1        1 MOL      0.051877
     17 H6          5.0360   -1.9100    2.9330 hc        1 MOL      0.035954
     18 H7          3.7340   -0.9090    3.4930 hc        1 MOL      0.035954
     19 N2          2.5050   -4.2210    0.9130 n         1 MOL     -0.421303
     20 C7          2.5830   -5.2570   -0.0940 c3        1 MOL     -0.088505
     21 C8          3.7590   -5.1570   -1.0830 c         1 MOL      0.526127
     22 O5          4.1400   -6.1800   -1.7060 o         1 MOL     -0.587582
     23 C9          1.2020   -5.4290   -0.7370 c3        1 MOL     -0.031656
     24 C10         1.2460   -6.3500   -1.9730 c3        1 MOL     -0.191151
     25 C11        -0.1480   -6.4360   -2.5130 c3        1 MOL      0.217548
     26 C12        -0.1290   -7.2460   -3.7550 c3        1 MOL     -0.049664
     27 N3         -1.4420   -7.0910   -4.4620 n4        1 MOL     -0.206944
     28 H8          1.8430   -3.4740    0.7300 hn        1 MOL      0.130525
     29 H9          2.6800   -6.1690    0.4890 h1        1 MOL      0.131896
     30 H10         0.8540   -4.4440   -1.0470 hc        1 MOL      0.071018
     31 H11         0.4830   -5.9180   -0.0890 hc        1 MOL      0.071018
     32 H12         1.5630   -7.3350   -1.6240 hc        1 MOL      0.080151
     33 H13         1.8720   -5.9960   -2.7920 hc        1 MOL      0.080151
     34 H14        -0.4710   -5.4330   -2.8030 hc        1 MOL     -0.051094
     35 H15        -0.8260   -6.7100   -1.7080 hc        1 MOL     -0.051094
     36 H16         0.0750   -8.2350   -3.3540 hx        1 MOL      0.093349
     37 H17         0.7030   -6.8900   -4.3660 hx        1 MOL      0.093349
     38 H18        -1.6170   -6.0950   -4.5120 hn        1 MOL      0.237622
     39 H19        -1.4340   -7.5680   -5.3480 hn        1 MOL      0.237622
     40 H20        -2.2610   -7.5120   -4.0290 hn        1 MOL      0.237622
     41 N4          4.3440   -3.9570   -1.2440 n         1 MOL     -0.438909
     42 C13         5.5120   -3.6150   -2.1010 c3        1 MOL      0.239337
     43 C14         6.7650   -2.9960   -1.3690 c         1 MOL      0.383078
     44 O6          7.9000   -3.1910   -1.7580 o         1 MOL     -0.520575
     45 C15         5.0390   -2.6860   -3.1500 c3        1 MOL     -0.359506
     46 C16         4.2240   -1.4430   -2.7720 c         1 MOL      0.769722
     47 O7          2.9820   -1.4190   -3.0200 o         1 MOL     -0.757268
     48 O8          4.7140   -0.5680   -2.0480 o         1 MOL     -0.757268
     49 H21         3.7980   -3.2450   -0.7840 hn        1 MOL      0.406561
     50 H22         5.9640   -4.5110   -2.5320 h1        1 MOL      0.070612
     51 H23         4.4430   -3.3020   -3.8190 hc        1 MOL      0.086007
     52 H24         5.9340   -2.4720   -3.7370 hc        1 MOL      0.086007
     53 N5          6.4080   -2.3490   -0.2590 n         1 MOL     -0.066427
     54 C17         7.3620   -1.7840    0.7100 c3        1 MOL     -0.054507
     55 C18         7.6580   -0.2860    0.4510 c         1 MOL      0.481188
     56 O9          8.6120    0.2500    1.0300 o         1 MOL     -0.533951
     57 H25         5.4340   -2.2980   -0.0120 hn        1 MOL     -0.008941
     58 H26         8.2670   -2.3510    0.9030 h1        1 MOL      0.086036
     59 H27         6.9050   -1.8630    1.6950 h1        1 MOL      0.086036
     60 N6          6.8160    0.3650   -0.4510 n         1 MOL     -0.197195
     61 C19         6.9760    1.8760   -0.6500 c3        1 MOL      0.004638
     62 C20         5.7170    2.7210   -0.5990 c         1 MOL      0.635858
     63 O10         4.6220    2.1710   -0.6050 o         1 MOL     -0.520942
     64 C21         7.8100    2.0350   -1.9140 c3        1 MOL     -0.275284
     65 C22         7.0250    2.2540   -3.2370 c         1 MOL      0.612561
     66 N7          6.0840    1.4160   -3.6020 n         1 MOL     -0.654071
     67 O11         7.2810    3.0850   -4.0520 o         1 MOL     -0.582107
     68 H28         6.0070   -0.0530   -0.8680 hn        1 MOL      0.100989
     69 H29         7.5160    2.2520    0.2290 h1        1 MOL      0.061548
     70 H30         8.4140    1.1420   -2.1020 hc        1 MOL      0.100117
     71 H31         8.4260    2.9370   -1.8610 hc        1 MOL      0.100117
     72 H32         5.8420    0.6910   -2.9400 hn        1 MOL      0.322587
     73 H33         5.6060    1.4970   -4.4860 hn        1 MOL      0.322587
     74 N8          5.9090    4.0370   -0.5590 n         1 MOL     -0.468200
     75 C23         4.8350    4.9170   -0.7570 c3        1 MOL     -0.159698
     76 C24         3.7720    4.9930    0.3550 c         1 MOL      0.642591
     77 O12         4.1480    5.1640    1.5380 o         1 MOL     -0.528167
     78 H34         6.8220    4.4620   -0.4530 hn        1 MOL      0.352216
     79 H35         4.4100    4.7420   -1.7510 h1        1 MOL      0.090933
     80 H36         5.2860    5.9060   -0.8570 h1        1 MOL      0.090933
     81 N9          2.5400    4.8550   -0.0730 n         1 MOL     -0.592665
     82 C25         1.3360    4.6280    0.7060 c3        1 MOL      0.109342
     83 C26         1.2430    3.1830    1.2710 c         1 MOL      0.799847
     84 O13         1.9480    2.2650    0.7320 o         1 MOL     -0.643861
     85 C27         0.0540    5.0380    0.0350 c3        1 MOL     -0.167881
     86 C28         0.0120    6.5510   -0.2820 ca        1 MOL      0.097460
     87 C29        -0.0560    7.5290    0.6820 ca        1 MOL     -0.151589
     88 C30        -0.2920    6.8930   -1.6390 ca        1 MOL     -0.151589
     89 C31        -0.0600    8.8590    0.3330 ca        1 MOL     -0.276943
     90 C32        -0.2960    8.2450   -2.0260 ca        1 MOL     -0.276943
     91 C33        -0.1150    9.2550   -1.0480 ca        1 MOL      0.364813
     92 O14        -0.0150   10.5090   -1.4300 oh        1 MOL     -0.475505
     93 H37         2.4720    4.7980   -1.0700 hn        1 MOL      0.293027
     94 H38         1.3230    5.2070    1.6260 h1        1 MOL      0.043698
     95 H39        -0.8140    4.7480    0.6180 hc        1 MOL      0.055004
     96 H40         0.0040    4.3780   -0.8320 hc        1 MOL      0.055004
     97 H41         0.0460    7.1080    1.6710 ha        1 MOL      0.122985
     98 H42        -0.2420    6.1270   -2.3920 ha        1 MOL      0.122985
     99 H43        -0.0350    9.6120    1.1050 ha        1 MOL      0.158945
    100 H44        -0.4990    8.3790   -3.0780 ha        1 MOL      0.158945
    101 H45         0.1200   11.1500   -0.7250 ho        1 MOL      0.387502
    102 N10         0.3870    3.0310    2.2790 n         1 MOL     -0.750751
    103 C34         0.1520    1.7430    3.0630 c3        1 MOL      0.126249
    104 C35        -0.1210    0.5010    2.1650 c         1 MOL      0.405654
    105 O15         0.7910   -0.0550    1.5570 o         1 MOL     -0.338935
    106 C36         1.3560    1.4330    3.9890 c3        1 MOL      0.076151
    107 C37         1.2760    0.0250    4.6770 c3        1 MOL     -0.085890
    108 C38         1.6210    2.5690    5.0320 c3        1 MOL     -0.249842
    109 C39         0.0280   -0.2420    5.4610 c3        1 MOL     -0.225532
    110 H46         0.2030    3.8130    2.8900 hn        1 MOL      0.379166
    111 H47        -0.7800    1.9140    3.6070 h1        1 MOL      0.057232
    112 H48         2.1970    1.3870    3.2980 hc        1 MOL      0.055685
    113 H49         2.1060   -0.1770    5.3540 hc        1 MOL      0.072965
    114 H50         1.3830   -0.7320    3.8930 hc        1 MOL      0.072965
    115 H51         2.4220    2.3010    5.7110 hc        1 MOL      0.069355
    116 H52         1.7840    3.5140    4.5210 hc        1 MOL      0.069355
    117 H53         0.7240    2.7180    5.6400 hc        1 MOL      0.069355
    118 H54        -0.8700    0.0500    4.9090 hc        1 MOL      0.051567
    119 H55        -0.1000   -1.3010    5.7080 hc        1 MOL      0.051567
    120 H56         0.0790    0.3240    6.3790 hc        1 MOL      0.051567
    121 N11        -1.3980    0.1380    2.1070 n         1 MOL     -0.398046
    122 C40        -1.9870   -1.0560    1.3830 c3        1 MOL     -0.053410
    123 C41        -3.4800   -0.9910    1.2200 c         1 MOL      0.684555
    124 O16        -4.1740   -1.4700    2.0640 o         1 MOL     -0.536305
    125 C42        -1.6200   -2.3720    2.1120 c3        1 MOL      0.194447
    126 O17        -0.2880   -2.8530    1.7500 oh        1 MOL     -0.687871
    127 H57        -2.1360    0.6300    2.5850 hn        1 MOL      0.290950
    128 H58        -1.5720   -1.2360    0.3910 h1        1 MOL      0.056140
    129 H59        -2.3820   -3.1500    1.9850 h1        1 MOL      0.049377
    130 H60        -1.7290   -2.3060    3.2010 h1        1 MOL      0.049377
    131 H61         0.1490   -3.0460    2.5790 ho        1 MOL      0.464400
    132 N12        -4.0030   -0.4030    0.1090 n         1 MOL     -0.804201
    133 C43        -5.4260   -0.2630   -0.1390 c3        1 MOL      0.290778
    134 C44        -5.6800    0.0330   -1.6710 c         1 MOL      0.559700
    135 O18        -4.6780    0.2100   -2.3910 o         1 MOL     -0.577090
    136 C45        -5.9790    0.7360    0.8690 c3        1 MOL     -0.318759
    137 H62        -3.3230    0.0700   -0.4670 hn        1 MOL      0.379626
    138 H63        -5.9330   -1.1840    0.1440 h1        1 MOL      0.072783
    139 H64        -5.3180    1.6020    0.9820 hc        1 MOL      0.104504
    140 H65        -6.9510    1.1320    0.5880 hc        1 MOL      0.104504
    141 H66        -6.0940    0.2780    1.8550 hc        1 MOL      0.104504
    142 N13        -6.8790    0.1760   -2.1890 n         1 MOL     -0.638324
    143 C46        -8.0950   -0.3920   -1.6330 c3        1 MOL      0.433619
    144 C47        -9.3160    0.2700   -2.1820 c         1 MOL      0.426843
    145 O19        -9.3400    0.8070   -3.2880 o         1 MOL     -0.536013
    146 C48        -8.1370   -1.7820   -2.1120 c3        1 MOL     -0.330935
    147 H67        -6.8430    0.4190   -3.1720 hn        1 MOL      0.349096
    148 H68        -8.1020   -0.2850   -0.5540 h1        1 MOL     -0.030101
    149 H69        -7.3030   -2.2310   -1.5830 hc        1 MOL      0.094203
    150 H70        -9.0760   -2.2170   -1.7720 hc        1 MOL      0.094203
    151 H71        -7.9250   -1.9190   -3.1720 hc        1 MOL      0.094203
    152 N14       -10.4420    0.2440   -1.4710 n         1 MOL     -0.477591
    153 C49       -10.6680   -0.1350   -0.0410 c3        1 MOL     -0.008588
    154 C50       -10.1530    0.8100    1.0180 c         1 MOL      0.337429
    155 O20        -9.6590    0.4400    2.0670 o         1 MOL     -0.487685
    156 C51       -12.2210   -0.2870    0.2290 c3        1 MOL      0.061321
    157 C52       -12.7040   -1.3520   -0.7290 c3        1 MOL     -0.185686
    158 C53       -14.1900   -1.8580   -0.5940 c         1 MOL      0.677849
    159 O21       -14.4510   -2.8230    0.1560 o         1 MOL     -0.644156
    160 O22       -15.1100   -1.2580   -1.2530 o         1 MOL     -0.644156
    161 H72       -11.2290    0.1510   -2.1120 hn        1 MOL      0.342184
    162 H73       -10.0990   -1.0480    0.1480 h1        1 MOL      0.078370
    163 H74       -12.7210    0.6580    0.0310 hc        1 MOL      0.037937
    164 H75       -12.3450   -0.6910    1.2330 hc        1 MOL      0.037937
    165 H76       -11.9790   -2.1380   -0.9500 hc        1 MOL      0.009161
    166 H77       -12.6710   -0.9430   -1.7390 hc        1 MOL      0.009161
    167 N15       -10.1970    2.1090    0.7130 n         1 MOL     -0.224366
    168 C54        -9.5570    3.2220    1.4510 c3        1 MOL     -0.235115
    169 H78       -10.1530    4.1270    1.3310 h1        1 MOL      0.108355
    170 H79        -9.4930    2.9670    2.5090 h1        1 MOL      0.108355
    171 H80        -8.5550    3.3920    1.0580 h1        1 MOL      0.108355
    172 H81       -10.6930    2.3640   -0.1350 hn        1 MOL      0.244484
    173 Ca1         2.5470    0.3490   -1.0000 Ca        1 MOL      1.769156
    174 O23         2.9670    1.8720   -3.1680 oh        1 MOL     -0.884749
    175 H82         3.6830    2.4410   -3.4400 ho        1 MOL      0.427466
    176 H83         2.2610    2.0520   -3.7860 ho        1 MOL      0.427466
    177 O24         0.8710   -1.7500   -0.8020 oh        1 MOL     -0.884749
    178 H84         0.4530   -2.2040   -1.5370 ho        1 MOL      0.427466
    179 H85         0.3340   -1.9870   -0.0410 ho        1 MOL      0.427466
    180 O25         0.1720    1.3000   -2.1720 oh        1 MOL     -0.884749
    181 H86        -0.7650    1.1220   -2.2480 ho        1 MOL      0.427466
    182 H87         0.4470    1.5630   -3.0470 ho        1 MOL      0.427466
@<TRIPOS>BOND
     1    1    2 1   
     2    1    4 1   
     3    1    5 1   
     4    1    6 1   
     5    2    3 2   
     6    2    7 1   
     7    7    8 1   
     8    7   15 1   
     9    8    9 1   
    10    8   11 1   
    11    8   16 1   
    12    9   10 2   
    13    9   19 1   
    14   11   12 1   
    15   11   17 1   
    16   11   18 1   
    17   12   13 1   
    18   12   14 1   
    19   19   20 1   
    20   19   28 1   
    21   20   21 1   
    22   20   23 1   
    23   20   29 1   
    24   21   22 2   
    25   21   41 1   
    26   23   24 1   
    27   23   30 1   
    28   23   31 1   
    29   24   25 1   
    30   24   32 1   
    31   24   33 1   
    32   25   26 1   
    33   25   34 1   
    34   25   35 1   
    35   26   27 1   
    36   26   36 1   
    37   26   37 1   
    38   27   38 1   
    39   27   39 1   
    40   27   40 1   
    41   41   42 1   
    42   41   49 1   
    43   42   43 1   
    44   42   45 1   
    45   42   50 1   
    46   43   44 2   
    47   43   53 1   
    48   45   46 1   
    49   45   51 1   
    50   45   52 1   
    51   46   47 1   
    52   46   48 1   
    53   53   54 1   
    54   53   57 1   
    55   54   55 1   
    56   54   58 1   
    57   54   59 1   
    58   55   56 2   
    59   55   60 1   
    60   60   61 1   
    61   60   68 1   
    62   61   62 1   
    63   61   64 1   
    64   61   69 1   
    65   62   63 2   
    66   62   74 1   
    67   64   65 1   
    68   64   70 1   
    69   64   71 1   
    70   65   66 1   
    71   65   67 2   
    72   66   72 1   
    73   66   73 1   
    74   74   75 1   
    75   74   78 1   
    76   75   76 1   
    77   75   79 1   
    78   75   80 1   
    79   76   77 2   
    80   76   81 1   
    81   81   82 1   
    82   81   93 1   
    83   82   83 1   
    84   82   85 1   
    85   82   94 1   
    86   83   84 2   
    87   83  102 1   
    88   85   86 1   
    89   85   95 1   
    90   85   96 1   
    91   86   87 ar  
    92   86   88 ar  
    93   87   89 ar  
    94   87   97 1   
    95   88   90 ar  
    96   88   98 1   
    97   89   91 ar  
    98   89   99 1   
    99   90   91 ar  
   100   90  100 1   
   101   91   92 1   
   102   92  101 1   
   103  102  103 1   
   104  102  110 1   
   105  103  104 1   
   106  103  106 1   
   107  103  111 1   
   108  104  105 2   
   109  104  121 1   
   110  106  107 1   
   111  106  108 1   
   112  106  112 1   
   113  107  109 1   
   114  107  113 1   
   115  107  114 1   
   116  108  115 1   
   117  108  116 1   
   118  108  117 1   
   119  109  118 1   
   120  109  119 1   
   121  109  120 1   
   122  121  122 1   
   123  121  127 1   
   124  122  123 1   
   125  122  125 1   
   126  122  128 1   
   127  123  124 2   
   128  123  132 1   
   129  125  126 1   
   130  125  129 1   
   131  125  130 1   
   132  126  131 1   
   133  132  133 1   
   134  132  137 1   
   135  133  134 1   
   136  133  136 1   
   137  133  138 1   
   138  134  135 2   
   139  134  142 1   
   140  136  139 1   
   141  136  140 1   
   142  136  141 1   
   143  142  143 1   
   144  142  147 1   
   145  143  144 1   
   146  143  146 1   
   147  143  148 1   
   148  144  145 2   
   149  144  152 1   
   150  146  149 1   
   151  146  150 1   
   152  146  151 1   
   153  152  153 1   
   154  152  161 1   
   155  153  154 1   
   156  153  156 1   
   157  153  162 1   
   158  154  155 2   
   159  154  167 1   
   160  156  157 1   
   161  156  163 1   
   162  156  164 1   
   163  157  158 1   
   164  157  165 1   
   165  157  166 1   
   166  158  159 1   
   167  158  160 1   
   168  167  168 1   
   169  167  172 1   
   170  168  169 1   
   171  168  170 1   
   172  168  171 1   
   173  174  175 1   
   174  174  176 1   
   175  177  178 1   
   176  177  179 1   
   177  180  181 1   
   178  180  182 1   
@<TRIPOS>SUBSTRUCTURE
     1 MOL         1 TEMP              0 ****  ****    0 ROOT
