@<TRIPOS>MOLECULE
MOL
  192   187     1     0     0
SMALL
resp


@<TRIPOS>ATOM
      1 C1         -6.1950   -2.8450    4.9570 c3        1 MOL     -0.338657
      2 C2         -5.7020   -2.4650    3.5780 c         1 MOL      0.804229
      3 O1         -5.1240   -3.2610    2.8290 o         1 MOL     -0.612059
      4 H1         -5.6050   -2.3230    5.7100 hc        1 MOL      0.089553
      5 H2         -7.2440   -2.5650    5.0580 hc        1 MOL      0.089553
      6 H3         -6.0910   -3.9210    5.0970 hc        1 MOL      0.089553
      7 N1         -5.8270   -1.1440    3.2000 n         1 MOL     -0.837800
      8 C3         -5.3020   -0.4950    2.0500 c3        1 MOL      0.719808
      9 C4         -3.7920   -0.3960    1.8240 c         1 MOL     -0.042983
     10 O2         -3.4550    0.3880    0.9300 o         1 MOL     -0.202140
     11 C5         -5.9360    0.9630    1.9610 c3        1 MOL     -0.392076
     12 C6         -7.4190    1.0600    2.4440 c         1 MOL      0.683743
     13 O3         -8.2330    1.7520    1.7440 o         1 MOL     -0.651852
     14 O4         -7.7170    0.7110    3.6340 o         1 MOL     -0.651852
     15 H4         -6.3980   -0.5520    3.7870 hn        1 MOL      0.357873
     16 H5         -5.6630   -0.9970    1.1510 h1        1 MOL     -0.002857
     17 H6         -5.8970    1.3000    0.9300 hc        1 MOL      0.052563
     18 H7         -5.2640    1.5930    2.5490 hc        1 MOL      0.052563
     19 N2         -2.9450   -1.0230    2.5840 n         1 MOL     -0.226823
     20 C7         -1.4970   -0.7070    2.7390 c3        1 MOL     -0.070084
     21 C8         -0.7110   -1.9820    2.3710 c         1 MOL      0.378611
     22 O5         -0.9060   -3.0140    3.0090 o         1 MOL     -0.495406
     23 C9         -1.2120   -0.2930    4.2270 c3        1 MOL     -0.083821
     24 C10        -1.7970    1.1400    4.5250 c3        1 MOL     -0.151477
     25 C11        -1.2800    2.2690    3.6690 c3        1 MOL      0.081719
     26 C12        -1.8160    3.5400    4.3230 c3        1 MOL     -0.039417
     27 N3         -1.2250    4.7130    3.6050 n4        1 MOL     -0.243004
     28 H8         -3.2200   -1.7700    3.2040 hn        1 MOL      0.291120
     29 H9         -1.2940    0.1120    2.0430 h1        1 MOL      0.030102
     30 H10        -0.1480   -0.2050    4.4650 hc        1 MOL      0.088167
     31 H11        -1.5950   -1.0160    4.9360 hc        1 MOL      0.088167
     32 H12        -1.5820    1.3340    5.5790 hc        1 MOL      0.051288
     33 H13        -2.8770    1.0720    4.4270 hc        1 MOL      0.051288
     34 H14        -1.6550    2.2060    2.6440 hc        1 MOL      0.062105
     35 H15        -0.1890    2.2270    3.6640 hc        1 MOL      0.062105
     36 H16        -1.5840    3.6660    5.3810 hx        1 MOL      0.081540
     37 H17        -2.8990    3.5970    4.1970 hx        1 MOL      0.081540
     38 H18        -1.4120    5.6140    4.0280 hn        1 MOL      0.286867
     39 H19        -0.2330    4.6330    3.4190 hn        1 MOL      0.286867
     40 H20        -1.6520    4.7110    2.7000 hn        1 MOL      0.286867
     41 N4          0.2830   -2.0290    1.5030 n         1 MOL     -0.114904
     42 C13         1.0600   -0.9950    0.7630 c3        1 MOL     -0.066921
     43 C14         1.4900    0.2570    1.6490 c         1 MOL      0.654282
     44 O6          0.7830    1.2500    1.6980 o         1 MOL     -0.631409
     45 C15         0.2990   -0.7310   -0.5400 c3        1 MOL     -0.956275
     46 C16         0.3630   -1.8420   -1.5850 c         1 MOL      0.679811
     47 O7          1.0920   -2.7930   -1.3620 o         1 MOL     -0.652232
     48 O8         -0.2750   -1.8180   -2.6670 o         1 MOL     -0.652232
     49 H21         0.5800   -2.9850    1.4040 hn        1 MOL      0.126951
     50 H22         2.0300   -1.3750    0.4180 h1        1 MOL      0.016434
     51 H23         0.7600    0.1640   -0.9550 hc        1 MOL      0.365007
     52 H24        -0.7410   -0.4810   -0.3600 hc        1 MOL      0.365007
     53 N5          2.6100    0.3190    2.3270 n         1 MOL     -0.415506
     54 C17         3.7170   -0.6890    2.2440 c3        1 MOL     -0.138908
     55 C18         4.9640   -0.3150    3.1270 c         1 MOL      0.579596
     56 O9          4.9080    0.6710    3.8940 o         1 MOL     -0.563821
     57 H25         2.8430    1.1410    2.8580 hn        1 MOL      0.284164
     58 H26         4.1300   -0.7650    1.2400 h1        1 MOL      0.116378
     59 H27         3.3310   -1.6060    2.6940 h1        1 MOL      0.116378
     60 N6          6.0790   -1.0210    3.1400 n         1 MOL     -0.509653
     61 C19         6.2890   -2.2900    2.4890 c3        1 MOL      0.389039
     62 C20         7.1680   -2.0610    1.2380 c         1 MOL      0.378045
     63 O10         8.1760   -1.3280    1.2170 o         1 MOL     -0.440833
     64 C21         6.9440   -3.3260    3.3810 c3        1 MOL     -0.270867
     65 C22         8.2590   -2.9350    4.0880 c         1 MOL      0.713063
     66 O11         8.4610   -1.6860    4.2560 o         1 MOL     -0.627108
     67 O12         9.1250   -3.7760    4.4580 o         1 MOL     -0.627108
     68 H28         6.8470   -0.7940    3.7540 hn        1 MOL      0.313014
     69 H29         5.3030   -2.6730    2.2100 h1        1 MOL     -0.082426
     70 H30         7.1780   -4.1030    2.6590 hc        1 MOL      0.021103
     71 H31         6.0880   -3.6300    3.9810 hc        1 MOL      0.021103
     72 N7          6.9090   -2.7650    0.1350 n         1 MOL     -0.175173
     73 C23         7.4960   -2.5590   -1.2420 c3        1 MOL     -0.399571
     74 C24         6.9150   -1.3330   -2.0340 c         1 MOL      0.524385
     75 O13         7.6800   -0.6920   -2.7530 o         1 MOL     -0.520849
     76 H32         6.1940   -3.4710    0.1420 hn        1 MOL      0.116494
     77 H33         7.2680   -3.4450   -1.8310 h1        1 MOL      0.172775
     78 H34         8.5720   -2.3840   -1.1260 h1        1 MOL      0.172775
     79 N8          5.6770   -0.9580   -1.7450 n         1 MOL     -0.315327
     80 C25         5.0880    0.3430   -2.1150 c3        1 MOL      0.133225
     81 C26         5.0950    1.4360   -0.9850 c         1 MOL      0.548106
     82 O14         5.5240    1.0880    0.1590 o         1 MOL     -0.505422
     83 C27         3.6040   -0.0010   -2.5670 c3        1 MOL      0.026758
     84 C28         3.4160   -0.9790   -3.7730 c3        1 MOL     -0.024583
     85 O15         3.0370    1.1220   -3.1260 oh        1 MOL     -0.622829
     86 H35         5.1680   -1.5520   -1.1080 hn        1 MOL      0.181669
     87 H36         5.6070    0.7300   -2.9850 h1        1 MOL      0.063568
     88 H37         3.0380   -0.3110   -1.6930 h1        1 MOL      0.172254
     89 H38         2.1390    0.8610   -3.3440 ho        1 MOL      0.437029
     90 H39         3.8130   -1.9320   -3.4170 hc        1 MOL      0.012202
     91 H40         2.3650   -0.9980   -4.0440 hc        1 MOL      0.012202
     92 H41         3.9580   -0.6940   -4.6710 hc        1 MOL      0.012202
     93 N9          4.7860    2.6880   -1.2900 n         1 MOL     -0.525960
     94 C29         4.8170    3.8600   -0.3960 c3        1 MOL     -0.028097
     95 C30         3.4330    4.5630   -0.3720 c         1 MOL      0.473497
     96 O16         3.2820    5.5940    0.2580 o         1 MOL     -0.567949
     97 C31         6.0960    4.7150   -0.6710 c3        1 MOL      0.062463
     98 C32         6.2410    5.3130   -2.0750 c3        1 MOL      0.006175
     99 C33         7.4280    3.9900   -0.1580 c3        1 MOL     -0.175220
    100 C34         5.4010    6.6100   -2.2770 c3        1 MOL     -0.154977
    101 H42         4.5780    2.8280   -2.2670 hn        1 MOL      0.382839
    102 H43         4.9260    3.5420    0.6460 h1        1 MOL      0.151133
    103 H44         6.0870    5.5710    0.0030 hc        1 MOL      0.026860
    104 H45         6.0760    4.5190   -2.8030 hc        1 MOL      0.001603
    105 H46         7.2450    5.7100   -2.2460 hc        1 MOL      0.001603
    106 H47         7.4140    3.6250    0.8670 hc        1 MOL      0.065598
    107 H48         7.8500    3.2730   -0.8640 hc        1 MOL      0.065598
    108 H49         8.2350    4.7230   -0.1100 hc        1 MOL      0.065598
    109 H50         5.6670    7.3450   -1.5110 hc        1 MOL      0.044323
    110 H51         5.7330    7.1460   -3.1700 hc        1 MOL      0.044323
    111 H52         4.3410    6.3990   -2.4080 hc        1 MOL      0.044323
    112 N10         2.4040    3.9230   -0.9650 n         1 MOL     -0.206872
    113 C35         1.0180    4.5210   -0.9890 c3        1 MOL      0.035707
    114 C36        -0.1720    3.5180   -0.9490 c         1 MOL      0.425883
    115 O17        -0.1210    2.3620   -1.4810 o         1 MOL     -0.507758
    116 C37         0.8480    5.4790   -2.1600 c3        1 MOL      0.412572
    117 C38         0.7660    4.7990   -3.5590 c3        1 MOL     -0.195118
    118 O18         1.8550    6.4390   -2.3340 oh        1 MOL     -0.593855
    119 H53         2.6400    3.1380   -1.5620 hn        1 MOL      0.109122
    120 H54         0.8870    5.2080   -0.1520 h1        1 MOL      0.016068
    121 H55        -0.1220    5.9580   -2.0220 h1        1 MOL     -0.056045
    122 H56         1.8670    7.0700   -1.6110 ho        1 MOL      0.374349
    123 H57        -0.1950    4.3170   -3.7270 hc        1 MOL      0.059504
    124 H58         0.8310    5.6050   -4.2940 hc        1 MOL      0.059504
    125 H59         1.5580    4.0980   -3.8130 hc        1 MOL      0.059504
    126 N11        -1.2970    3.9300   -0.3600 n         1 MOL     -0.480582
    127 C39        -2.5460    3.1310   -0.3610 c3        1 MOL     -0.013829
    128 C40        -2.9690    2.6980   -1.7490 c         1 MOL      0.665975
    129 O19        -3.0140    3.5220   -2.6510 o         1 MOL     -0.558497
    130 C41        -3.6940    3.7930    0.3590 c3        1 MOL      0.130814
    131 C42        -4.1550    5.1680   -0.1550 c3        1 MOL     -0.368081
    132 O20        -3.3070    3.9750    1.6970 oh        1 MOL     -0.673282
    133 H60        -1.2850    4.8550    0.0570 hn        1 MOL      0.278254
    134 H61        -2.2770    2.2320    0.1920 h1        1 MOL      0.201385
    135 H62        -4.4840    3.0600    0.4750 h1        1 MOL      0.133338
    136 H63        -4.0930    4.3840    2.0680 ho        1 MOL      0.420153
    137 H64        -3.3690    5.9250   -0.1720 hc        1 MOL      0.109173
    138 H65        -4.6120    4.9750   -1.1290 hc        1 MOL      0.109173
    139 H66        -4.9500    5.6380    0.4270 hc        1 MOL      0.109173
    140 N12        -3.5460    1.4890   -1.8350 n         1 MOL     -0.235791
    141 C43        -4.1630    0.8900   -3.0190 c3        1 MOL     -0.118151
    142 C44        -4.0800   -0.6150   -2.9700 c         1 MOL      0.512970
    143 O21        -4.4000   -1.2260   -4.0240 o         1 MOL     -0.528777
    144 C45        -5.5310    1.4290   -3.0630 c3        1 MOL     -0.071473
    145 C46        -6.5650    0.9810   -2.0100 c3        1 MOL     -0.121212
    146 C47        -7.7100    1.9310   -1.7850 c3        1 MOL     -0.022263
    147 C48        -7.3290    3.1730   -1.0700 c3        1 MOL      0.206961
    148 N13        -8.3310    3.6710   -0.1670 n4        1 MOL     -0.398020
    149 H67        -3.4790    0.9820   -0.9590 hn        1 MOL     -0.050321
    150 H68        -3.6700    1.2730   -3.9100 h1        1 MOL      0.128804
    151 H69        -5.9590    1.1030   -4.0020 hc        1 MOL      0.052016
    152 H70        -5.5090    2.5200   -2.9880 hc        1 MOL      0.052016
    153 H71        -6.1300    0.8260   -1.0150 hc        1 MOL      0.078792
    154 H72        -6.8890   -0.0070   -2.3490 hc        1 MOL      0.078792
    155 H73        -8.4280    1.4730   -1.1010 hc        1 MOL      0.030870
    156 H74        -8.2180    2.1400   -2.7300 hc        1 MOL      0.030870
    157 H75        -7.1500    3.9560   -1.8040 hx        1 MOL     -0.009343
    158 H76        -6.3930    3.0560   -0.5210 hx        1 MOL     -0.009343
    159 H77        -8.3550    3.0740    0.6450 hn        1 MOL      0.303103
    160 H78        -8.0740    4.5940    0.1550 hn        1 MOL      0.303103
    161 H79        -9.2410    3.7830   -0.5930 hn        1 MOL      0.303103
    162 N14        -3.8560   -1.2540   -1.7370 n         1 MOL      0.150535
    163 C49        -3.9320   -2.7190   -1.5900 c3        1 MOL     -0.797566
    164 C50        -5.3160   -3.2350   -1.4620 c         1 MOL      0.721610
    165 O22        -6.1130   -2.6240   -0.7190 o         1 MOL     -0.580603
    166 C51        -3.0620   -3.0920   -0.4120 c3        1 MOL      1.118855
    167 C52        -2.9590   -4.5830   -0.0230 c3        1 MOL     -0.730907
    168 C53        -2.3810   -5.4430   -1.2110 c         1 MOL      1.030560
    169 O23        -3.1520   -5.8850   -2.0750 o         1 MOL     -0.837621
    170 O24        -1.2100   -5.7880   -1.1310 o         1 MOL     -0.837621
    171 H80        -3.5330   -0.6520   -0.9880 hn        1 MOL     -0.052448
    172 H81        -3.4710   -3.1710   -2.4660 h1        1 MOL      0.148303
    173 H82        -3.4500   -2.6600    0.5120 hc        1 MOL     -0.182637
    174 H83        -2.0430   -2.7950   -0.6650 hc        1 MOL     -0.182637
    175 H84        -3.9180   -4.9260    0.3510 hc        1 MOL      0.135865
    176 H85        -2.2460   -4.7310    0.7900 hc        1 MOL      0.135865
    177 N15        -5.5990   -4.3290   -2.2120 n         1 MOL     -0.535714
    178 C54        -6.9100   -5.0360   -2.2230 c3        1 MOL      0.016389
    179 H86        -7.1970   -5.2540   -3.2510 h1        1 MOL      0.048429
    180 H87        -6.8250   -5.9690   -1.6650 h1        1 MOL      0.048429
    181 H88        -7.6680   -4.4040   -1.7610 h1        1 MOL      0.048429
    182 H89        -4.8080   -4.8130   -2.5960 hn        1 MOL      0.465559
    183 Ca1         1.2740   -5.5970   -1.5780 Ca        1 MOL      1.638366
    184 O25         1.8770   -6.8990   -3.8200 oh        1 MOL     -0.881975
    185 H90         1.6320   -7.0380   -4.7340 ho        1 MOL      0.433961
    186 H91         2.4190   -7.6590   -3.6020 ho        1 MOL      0.433961
    187 O26         0.0540   -4.4320   -3.5460 oh        1 MOL     -0.881975
    188 H92         0.1990   -3.4830   -3.5160 ho        1 MOL      0.433961
    189 H93        -0.2960   -4.5910   -4.4250 ho        1 MOL      0.433961
    190 O27         3.1760   -4.3020   -2.7180 oh        1 MOL     -0.881975
    191 H94         3.5700   -3.4250   -2.6440 ho        1 MOL      0.433961
    192 H95         3.7380   -4.7560   -3.3500 ho        1 MOL      0.433961
@<TRIPOS>BOND
     1    1    2 1   
     2    1    4 1   
     3    1    5 1   
     4    1    6 1   
     5    2    3 2   
     6    2    7 1   
     7    7    8 1   
     8    7   15 1   
     9    8    9 1   
    10    8   11 1   
    11    8   16 1   
    12    9   10 2   
    13    9   19 1   
    14   11   12 1   
    15   11   17 1   
    16   11   18 1   
    17   12   13 1   
    18   12   14 1   
    19   19   20 1   
    20   19   28 1   
    21   20   21 1   
    22   20   23 1   
    23   20   29 1   
    24   21   22 2   
    25   21   41 1   
    26   23   24 1   
    27   23   30 1   
    28   23   31 1   
    29   24   25 1   
    30   24   32 1   
    31   24   33 1   
    32   25   26 1   
    33   25   34 1   
    34   25   35 1   
    35   26   27 1   
    36   26   36 1   
    37   26   37 1   
    38   27   38 1   
    39   27   39 1   
    40   27   40 1   
    41   41   42 1   
    42   41   49 1   
    43   42   43 1   
    44   42   45 1   
    45   42   50 1   
    46   43   44 2   
    47   43   53 1   
    48   45   46 1   
    49   45   51 1   
    50   45   52 1   
    51   46   47 1   
    52   46   48 1   
    53   53   54 1   
    54   53   57 1   
    55   54   55 1   
    56   54   58 1   
    57   54   59 1   
    58   55   56 2   
    59   55   60 1   
    60   60   61 1   
    61   60   68 1   
    62   61   62 1   
    63   61   64 1   
    64   61   69 1   
    65   62   63 2   
    66   62   72 1   
    67   64   65 1   
    68   64   70 1   
    69   64   71 1   
    70   65   66 1   
    71   65   67 1   
    72   72   73 1   
    73   72   76 1   
    74   73   74 1   
    75   73   77 1   
    76   73   78 1   
    77   74   75 2   
    78   74   79 1   
    79   79   80 1   
    80   79   86 1   
    81   80   81 1   
    82   80   83 1   
    83   80   87 1   
    84   81   82 2   
    85   81   93 1   
    86   83   84 1   
    87   83   85 1   
    88   83   88 1   
    89   84   90 1   
    90   84   91 1   
    91   84   92 1   
    92   85   89 1   
    93   93   94 1   
    94   93  101 1   
    95   94   95 1   
    96   94   97 1   
    97   94  102 1   
    98   95   96 2   
    99   95  112 1   
   100   97   98 1   
   101   97   99 1   
   102   97  103 1   
   103   98  100 1   
   104   98  104 1   
   105   98  105 1   
   106   99  106 1   
   107   99  107 1   
   108   99  108 1   
   109  100  109 1   
   110  100  110 1   
   111  100  111 1   
   112  112  113 1   
   113  112  119 1   
   114  113  114 1   
   115  113  116 1   
   116  113  120 1   
   117  114  115 2   
   118  114  126 1   
   119  116  117 1   
   120  116  118 1   
   121  116  121 1   
   122  117  123 1   
   123  117  124 1   
   124  117  125 1   
   125  118  122 1   
   126  126  127 1   
   127  126  133 1   
   128  127  128 1   
   129  127  130 1   
   130  127  134 1   
   131  128  129 2   
   132  128  140 1   
   133  130  131 1   
   134  130  132 1   
   135  130  135 1   
   136  131  137 1   
   137  131  138 1   
   138  131  139 1   
   139  132  136 1   
   140  140  141 1   
   141  140  149 1   
   142  141  142 1   
   143  141  144 1   
   144  141  150 1   
   145  142  143 2   
   146  142  162 1   
   147  144  145 1   
   148  144  151 1   
   149  144  152 1   
   150  145  146 1   
   151  145  153 1   
   152  145  154 1   
   153  146  147 1   
   154  146  155 1   
   155  146  156 1   
   156  147  148 1   
   157  147  157 1   
   158  147  158 1   
   159  148  159 1   
   160  148  160 1   
   161  148  161 1   
   162  162  163 1   
   163  162  171 1   
   164  163  164 1   
   165  163  166 1   
   166  163  172 1   
   167  164  165 2   
   168  164  177 1   
   169  166  167 1   
   170  166  173 1   
   171  166  174 1   
   172  167  168 1   
   173  167  175 1   
   174  167  176 1   
   175  168  169 1   
   176  168  170 1   
   177  177  178 1   
   178  177  182 1   
   179  178  179 1   
   180  178  180 1   
   181  178  181 1   
   182  184  185 1   
   183  184  186 1   
   184  187  188 1   
   185  187  189 1   
   186  190  191 1   
   187  190  192 1   
@<TRIPOS>SUBSTRUCTURE
     1 MOL         1 TEMP              0 ****  ****    0 ROOT
