@<TRIPOS>MOLECULE
MOL
  182   178     1     0     0
SMALL
resp


@<TRIPOS>ATOM
      1 C1          1.9500   -4.9520    5.9430 c3        1 MOL     -0.381116
      2 C2          2.0340   -4.3840    4.4980 c         1 MOL      0.753171
      3 O1          1.2050   -4.6320    3.6230 o         1 MOL     -0.629322
      4 H1          2.6170   -5.8090    6.0350 hc        1 MOL      0.104660
      5 H2          2.2490   -4.1820    6.6540 hc        1 MOL      0.104660
      6 H3          0.9280   -5.2640    6.1530 hc        1 MOL      0.104660
      7 N1          2.9800   -3.4560    4.2550 n         1 MOL     -0.627797
      8 C3          3.1110   -2.9120    2.8710 c3        1 MOL      0.054297
      9 C4          3.6680   -4.0290    1.9430 c         1 MOL      0.675244
     10 O2          4.6940   -4.5550    2.2260 o         1 MOL     -0.550290
     11 C5          4.0090   -1.6700    3.0020 c3        1 MOL     -0.032291
     12 C6          4.0840   -0.7840    1.7590 c         1 MOL      0.637050
     13 O3          3.8120    0.4260    1.8100 o         1 MOL     -0.706775
     14 O4          4.2100   -1.3160    0.6370 o         1 MOL     -0.706775
     15 H4          3.5920   -3.0540    4.9490 hn        1 MOL      0.327888
     16 H5          2.1370   -2.5640    2.5410 h1        1 MOL      0.043412
     17 H6          4.9570   -2.0870    3.3300 hc        1 MOL      0.029156
     18 H7          3.7530   -0.9850    3.8020 hc        1 MOL      0.029156
     19 N2          3.0210   -4.3080    0.7890 n         1 MOL     -0.440817
     20 C7          3.4810   -5.2770   -0.2740 c3        1 MOL     -0.195852
     21 C8          4.5520   -4.7980   -1.2100 c         1 MOL      0.498350
     22 O5          4.9280   -5.4420   -2.2320 o         1 MOL     -0.579567
     23 C9          2.2320   -5.8040   -1.0860 c3        1 MOL      0.403809
     24 C10         2.4360   -7.2050   -1.6270 c3        1 MOL     -0.154310
     25 C11         1.0930   -7.8300   -2.1220 c3        1 MOL      0.001253
     26 C12         0.3680   -7.1120   -3.2690 c3        1 MOL      0.111009
     27 N3         -0.7940   -7.9160   -3.7480 n4        1 MOL     -0.300819
     28 H8          2.2070   -3.8020    0.4850 hn        1 MOL      0.273962
     29 H9          3.9100   -6.1200    0.2690 h1        1 MOL      0.136495
     30 H10         1.9700   -5.0970   -1.8710 hc        1 MOL     -0.079198
     31 H11         1.3630   -5.8000   -0.4190 hc        1 MOL     -0.079198
     32 H12         2.8680   -7.7710   -0.8060 hc        1 MOL      0.054739
     33 H13         3.0710   -7.1040   -2.5130 hc        1 MOL      0.054739
     34 H14         0.4440   -7.8820   -1.2410 hc        1 MOL      0.011657
     35 H15         1.3220   -8.8230   -2.4940 hc        1 MOL      0.011657
     36 H16         1.0750   -6.9960   -4.0830 hx        1 MOL      0.057524
     37 H17         0.0480   -6.1240   -2.9220 hx        1 MOL      0.057524
     38 H18        -0.5250   -8.8850   -3.8600 hn        1 MOL      0.251804
     39 H19        -1.5580   -7.8550   -3.0910 hn        1 MOL      0.251804
     40 H20        -1.1910   -7.6910   -4.6480 hn        1 MOL      0.251804
     41 N4          5.0740   -3.6080   -1.0310 n         1 MOL     -0.207164
     42 C13         6.0470   -3.0190   -1.9690 c3        1 MOL     -0.006082
     43 C14         7.1020   -2.2130   -1.2890 c         1 MOL      0.430506
     44 O6          8.1490   -1.9050   -1.8960 o         1 MOL     -0.528136
     45 C15         5.2990   -2.2110   -3.0890 c3        1 MOL     -0.205732
     46 C16         4.2100   -1.2560   -2.6170 c         1 MOL      0.732446
     47 O7          4.5510   -0.1470   -2.1540 o         1 MOL     -0.731103
     48 O8          3.0680   -1.6160   -2.4090 o         1 MOL     -0.731103
     49 H21         4.6180   -3.1040   -0.2860 hn        1 MOL      0.076334
     50 H22         6.5390   -3.8800   -2.4240 h1        1 MOL      0.135606
     51 H23         4.8470   -2.9340   -3.7650 hc        1 MOL      0.067190
     52 H24         6.0530   -1.6430   -3.6380 hc        1 MOL      0.067190
     53 N5          6.8720   -1.8700   -0.0140 n         1 MOL     -0.259720
     54 C17         7.7650   -1.0420    0.7770 c3        1 MOL     -0.187514
     55 C18         7.6510    0.4680    0.3920 c         1 MOL      0.491569
     56 O9          8.4770    1.3110    0.7710 o         1 MOL     -0.567626
     57 H25         5.9870   -2.0350    0.4400 hn        1 MOL      0.228923
     58 H26         8.7770   -1.4150    0.6390 h1        1 MOL      0.125153
     59 H27         7.5600   -1.2010    1.8400 h1        1 MOL      0.125153
     60 N6          6.6620    0.8710   -0.4060 n         1 MOL     -0.312017
     61 C19         6.5990    2.2020   -1.0690 c3        1 MOL      0.270253
     62 C20         5.3040    2.9260   -0.9390 c         1 MOL      0.240313
     63 O10         4.3020    2.2290   -0.6230 o         1 MOL     -0.409501
     64 C21         7.1000    2.0170   -2.5110 c3        1 MOL     -0.212198
     65 C22         7.8680    3.1930   -3.1550 c         1 MOL      0.632091
     66 N7          8.9630    2.8630   -3.7110 n         1 MOL     -0.730213
     67 O11         7.2960    4.3030   -3.2260 o         1 MOL     -0.595602
     68 H28         5.9040    0.2370   -0.6280 hn        1 MOL      0.292335
     69 H29         7.4230    2.7880   -0.6570 h1        1 MOL      0.016728
     70 H30         6.1790    1.8090   -3.0450 hc        1 MOL      0.056693
     71 H31         7.7700    1.1730   -2.6340 hc        1 MOL      0.056693
     72 H32         9.2310    1.9030   -3.5210 hn        1 MOL      0.369256
     73 H33         9.6310    3.5190   -4.0940 hn        1 MOL      0.369256
     74 N8          5.2030    4.1950   -1.2820 n         1 MOL     -0.214086
     75 C23         3.9430    4.9640   -1.4290 c3        1 MOL     -0.082885
     76 C24         3.0370    4.9900   -0.2210 c         1 MOL      0.493230
     77 O12         3.4970    5.0670    0.9610 o         1 MOL     -0.479989
     78 H34         6.0420    4.7360   -1.3780 hn        1 MOL      0.263583
     79 H35         3.4100    4.5860   -2.3020 h1        1 MOL      0.078452
     80 H36         4.2590    5.9780   -1.6670 h1        1 MOL      0.078452
     81 N9          1.7100    4.8470   -0.4870 n         1 MOL     -0.466431
     82 C25         0.7210    4.6550    0.5030 c3        1 MOL      0.142105
     83 C26         0.7310    3.2530    1.1210 c         1 MOL      0.480258
     84 O13         1.4710    2.3600    0.6250 o         1 MOL     -0.468110
     85 C27        -0.6500    5.0420   -0.0700 c3        1 MOL     -0.065104
     86 C28        -0.8650    6.5450   -0.1570 ca        1 MOL      0.040188
     87 C29        -0.7260    7.3260    1.0090 ca        1 MOL     -0.163877
     88 C30        -1.3190    7.1430   -1.3380 ca        1 MOL     -0.163877
     89 C31        -1.0880    8.6600    0.9640 ca        1 MOL     -0.199880
     90 C32        -1.4700    8.5210   -1.3840 ca        1 MOL     -0.199880
     91 C33        -1.4970    9.2380   -0.2290 ca        1 MOL      0.311014
     92 O14        -1.5500   10.5950   -0.2110 oh        1 MOL     -0.506964
     93 H37         1.4060    4.6670   -1.4380 hn        1 MOL      0.244165
     94 H38         0.9140    5.3450    1.3290 h1        1 MOL      0.051106
     95 H39        -1.4100    4.7050    0.6410 hc        1 MOL      0.043450
     96 H40        -0.8700    4.4730   -0.9720 hc        1 MOL      0.043450
     97 H41        -0.4140    6.8530    1.9310 ha        1 MOL      0.116981
     98 H42        -1.2220    6.5140   -2.2080 ha        1 MOL      0.116981
     99 H43        -1.0100    9.2450    1.8790 ha        1 MOL      0.141487
    100 H44        -1.6040    9.0610   -2.3170 ha        1 MOL      0.141487
    101 H45        -1.4300   11.0600    0.6240 ho        1 MOL      0.379261
    102 N10        -0.1510    3.0480    2.1190 n         1 MOL     -0.615412
    103 C34        -0.4710    1.7990    2.9460 c3        1 MOL      0.014419
    104 C35        -0.4030    0.5440    2.1250 c         1 MOL      0.784093
    105 O15         0.5780    0.1250    1.5930 o         1 MOL     -0.481780
    106 C36         0.2220    1.7800    4.3310 c3        1 MOL      0.114699
    107 C37         1.6660    1.2350    4.2540 c3        1 MOL      0.036234
    108 C38        -0.6250    1.1050    5.3210 c3        1 MOL     -0.434716
    109 C39         2.4450    1.1880    5.5430 c3        1 MOL     -0.062516
    110 H46        -0.4050    3.9260    2.5500 hn        1 MOL      0.320426
    111 H47        -1.5230    2.0290    3.1100 h1        1 MOL      0.103088
    112 H48         0.2440    2.7900    4.7330 hc        1 MOL      0.037734
    113 H49         2.3040    1.8360    3.6000 hc        1 MOL      0.031605
    114 H50         1.6650    0.2130    3.8780 hc        1 MOL      0.031605
    115 H51        -0.3970    1.4600    6.3350 hc        1 MOL      0.102858
    116 H52        -1.6130    1.5370    5.1360 hc        1 MOL      0.102858
    117 H53        -0.6070    0.0180    5.2920 hc        1 MOL      0.102858
    118 H54         3.4270    0.7410    5.3590 hc        1 MOL      0.014440
    119 H55         2.5960    2.1570    6.0310 hc        1 MOL      0.014440
    120 H56         1.9500    0.5710    6.2910 hc        1 MOL      0.014440
    121 N11        -1.5260   -0.1740    2.0120 n         1 MOL     -0.773807
    122 C40        -1.8580   -1.2710    1.1020 c3        1 MOL      0.302823
    123 C41        -3.1930   -1.0720    0.4220 c         1 MOL      0.559080
    124 O16        -3.3550   -1.5550   -0.7100 o         1 MOL     -0.545360
    125 C42        -1.9230   -2.5420    1.8800 c3        1 MOL      0.075135
    126 O17        -2.4190   -3.6090    1.0800 oh        1 MOL     -0.606761
    127 H57        -2.3040    0.0960    2.5990 hn        1 MOL      0.246352
    128 H58        -1.0250   -1.2690    0.3840 h1        1 MOL     -0.023034
    129 H59        -2.5180   -2.5670    2.7930 h1        1 MOL      0.057205
    130 H60        -0.9180   -2.8090    2.2060 h1        1 MOL      0.057205
    131 H61        -2.1950   -4.4060    1.5720 ho        1 MOL      0.411583
    132 N12        -4.1940   -0.6120    1.1150 n         1 MOL     -0.545136
    133 C43        -5.4670   -0.2970    0.4860 c3        1 MOL      0.162355
    134 C44        -5.4280    0.5980   -0.7730 c         1 MOL      0.656521
    135 O18        -4.5270    1.4280   -0.8400 o         1 MOL     -0.590151
    136 C45        -6.5710    0.1520    1.4540 c3        1 MOL     -0.335274
    137 H62        -4.0990   -0.2680    2.0590 hn        1 MOL      0.331835
    138 H63        -5.8690   -1.2530    0.1560 h1        1 MOL      0.103526
    139 H64        -6.7190   -0.6810    2.1460 hc        1 MOL      0.098642
    140 H65        -6.1870    1.0210    2.0010 hc        1 MOL      0.098642
    141 H66        -7.4740    0.4370    0.9240 hc        1 MOL      0.098642
    142 N13        -6.3710    0.5380   -1.7580 n         1 MOL     -0.667676
    143 C46        -7.6150   -0.3250   -1.7670 c3        1 MOL      0.315970
    144 C47        -8.8020    0.3740   -2.5030 c         1 MOL      0.405515
    145 O19        -8.5950    1.2570   -3.3800 o         1 MOL     -0.530190
    146 C48        -7.2160   -1.5940   -2.5410 c3        1 MOL     -0.196374
    147 H67        -6.2970    1.2010   -2.5160 hn        1 MOL      0.350269
    148 H68        -7.8680   -0.6480   -0.7650 h1        1 MOL     -0.037554
    149 H69        -7.2230   -1.3870   -3.6130 hc        1 MOL      0.059091
    150 H70        -6.2930   -2.0210   -2.1450 hc        1 MOL      0.059091
    151 H71        -7.9550   -2.3880   -2.4420 hc        1 MOL      0.059091
    152 N14       -10.0640    0.0480   -2.2640 n         1 MOL     -0.382842
    153 C49       -10.5300   -0.7280   -1.0910 c3        1 MOL     -0.146775
    154 C50       -10.3080    0.0340    0.2950 c         1 MOL      0.506406
    155 O20        -9.9030   -0.5660    1.2640 o         1 MOL     -0.516119
    156 C51       -12.0100   -0.9950   -1.2750 c3        1 MOL      0.093972
    157 C52       -12.5190   -2.1390   -0.3550 c3        1 MOL     -0.280668
    158 C53       -14.0390   -2.3840   -0.5190 c         1 MOL      0.720216
    159 O21       -14.8430   -1.4550   -0.4420 o         1 MOL     -0.650594
    160 O22       -14.4180   -3.5640   -0.6470 o         1 MOL     -0.650594
    161 H72       -10.7770    0.6090   -2.7090 hn        1 MOL      0.297460
    162 H73        -9.9380   -1.6430   -1.0960 h1        1 MOL      0.137943
    163 H74       -12.0950   -1.3850   -2.2870 hc        1 MOL      0.000881
    164 H75       -12.6270   -0.0940   -1.2380 hc        1 MOL      0.000881
    165 H76       -12.3300   -1.8450    0.6760 hc        1 MOL      0.065126
    166 H77       -11.8280   -2.9660   -0.4590 hc        1 MOL      0.065126
    167 N15       -10.3770    1.3940    0.2730 n         1 MOL     -0.319792
    168 C54        -9.9320    2.2340    1.4340 c3        1 MOL     -0.128600
    169 H78       -10.6950    2.9800    1.6560 h1        1 MOL      0.086139
    170 H79        -9.7810    1.5990    2.3060 h1        1 MOL      0.086139
    171 H80        -8.9970    2.7350    1.1820 h1        1 MOL      0.086139
    172 H81       -10.6260    1.8470   -0.6000 hn        1 MOL      0.267976
    173 Ca1         2.5280    0.2760   -0.4860 Ca        1 MOL      1.701002
    174 O23         1.4640   -2.3230   -0.4700 oh        1 MOL     -0.832975
    175 H82         1.9010   -2.1120   -1.2920 ho        1 MOL      0.414828
    176 H83         0.6770   -2.8020   -0.7260 ho        1 MOL      0.414828
    177 O24         0.0410    0.2000   -1.5710 oh        1 MOL     -0.832975
    178 H84        -0.2800   -0.4720   -2.1860 ho        1 MOL      0.414828
    179 H85        -0.6820    0.8180   -1.5000 ho        1 MOL      0.414828
    180 O25         1.9670    1.9300   -2.5940 oh        1 MOL     -0.832975
    181 H86         2.7060    2.3270   -3.0520 ho        1 MOL      0.414828
    182 H87         1.2350    2.5240   -2.7550 ho        1 MOL      0.414828
@<TRIPOS>BOND
     1    1    2 1   
     2    1    4 1   
     3    1    5 1   
     4    1    6 1   
     5    2    3 2   
     6    2    7 1   
     7    7    8 1   
     8    7   15 1   
     9    8    9 1   
    10    8   11 1   
    11    8   16 1   
    12    9   10 2   
    13    9   19 1   
    14   11   12 1   
    15   11   17 1   
    16   11   18 1   
    17   12   13 1   
    18   12   14 1   
    19   19   20 1   
    20   19   28 1   
    21   20   21 1   
    22   20   23 1   
    23   20   29 1   
    24   21   22 2   
    25   21   41 1   
    26   23   24 1   
    27   23   30 1   
    28   23   31 1   
    29   24   25 1   
    30   24   32 1   
    31   24   33 1   
    32   25   26 1   
    33   25   34 1   
    34   25   35 1   
    35   26   27 1   
    36   26   36 1   
    37   26   37 1   
    38   27   38 1   
    39   27   39 1   
    40   27   40 1   
    41   41   42 1   
    42   41   49 1   
    43   42   43 1   
    44   42   45 1   
    45   42   50 1   
    46   43   44 2   
    47   43   53 1   
    48   45   46 1   
    49   45   51 1   
    50   45   52 1   
    51   46   47 1   
    52   46   48 1   
    53   53   54 1   
    54   53   57 1   
    55   54   55 1   
    56   54   58 1   
    57   54   59 1   
    58   55   56 2   
    59   55   60 1   
    60   60   61 1   
    61   60   68 1   
    62   61   62 1   
    63   61   64 1   
    64   61   69 1   
    65   62   63 2   
    66   62   74 1   
    67   64   65 1   
    68   64   70 1   
    69   64   71 1   
    70   65   66 1   
    71   65   67 2   
    72   66   72 1   
    73   66   73 1   
    74   74   75 1   
    75   74   78 1   
    76   75   76 1   
    77   75   79 1   
    78   75   80 1   
    79   76   77 2   
    80   76   81 1   
    81   81   82 1   
    82   81   93 1   
    83   82   83 1   
    84   82   85 1   
    85   82   94 1   
    86   83   84 2   
    87   83  102 1   
    88   85   86 1   
    89   85   95 1   
    90   85   96 1   
    91   86   87 ar  
    92   86   88 ar  
    93   87   89 ar  
    94   87   97 1   
    95   88   90 ar  
    96   88   98 1   
    97   89   91 ar  
    98   89   99 1   
    99   90   91 ar  
   100   90  100 1   
   101   91   92 1   
   102   92  101 1   
   103  102  103 1   
   104  102  110 1   
   105  103  104 1   
   106  103  106 1   
   107  103  111 1   
   108  104  105 2   
   109  104  121 1   
   110  106  107 1   
   111  106  108 1   
   112  106  112 1   
   113  107  109 1   
   114  107  113 1   
   115  107  114 1   
   116  108  115 1   
   117  108  116 1   
   118  108  117 1   
   119  109  118 1   
   120  109  119 1   
   121  109  120 1   
   122  121  122 1   
   123  121  127 1   
   124  122  123 1   
   125  122  125 1   
   126  122  128 1   
   127  123  124 2   
   128  123  132 1   
   129  125  126 1   
   130  125  129 1   
   131  125  130 1   
   132  126  131 1   
   133  132  133 1   
   134  132  137 1   
   135  133  134 1   
   136  133  136 1   
   137  133  138 1   
   138  134  135 2   
   139  134  142 1   
   140  136  139 1   
   141  136  140 1   
   142  136  141 1   
   143  142  143 1   
   144  142  147 1   
   145  143  144 1   
   146  143  146 1   
   147  143  148 1   
   148  144  145 2   
   149  144  152 1   
   150  146  149 1   
   151  146  150 1   
   152  146  151 1   
   153  152  153 1   
   154  152  161 1   
   155  153  154 1   
   156  153  156 1   
   157  153  162 1   
   158  154  155 2   
   159  154  167 1   
   160  156  157 1   
   161  156  163 1   
   162  156  164 1   
   163  157  158 1   
   164  157  165 1   
   165  157  166 1   
   166  158  159 1   
   167  158  160 1   
   168  167  168 1   
   169  167  172 1   
   170  168  169 1   
   171  168  170 1   
   172  168  171 1   
   173  174  175 1   
   174  174  176 1   
   175  177  178 1   
   176  177  179 1   
   177  180  181 1   
   178  180  182 1   
@<TRIPOS>SUBSTRUCTURE
     1 MOL         1 TEMP              0 ****  ****    0 ROOT
