@<TRIPOS>MOLECULE
MOL
  191   184     1     0     0
SMALL
resp


@<TRIPOS>ATOM
      1 C1          1.7780    1.9420    3.2630 c3        1 MOL     -0.444087
      2 C2          3.0770    1.7680    2.4720 c         1 MOL      0.620587
      3 O1          3.3750    2.6460    1.6190 o         1 MOL     -0.518168
      4 H1          1.0900    2.5690    2.6960 hc        1 MOL      0.122490
      5 H2          1.3230    0.9660    3.4350 hc        1 MOL      0.122490
      6 H3          1.9950    2.4160    4.2200 hc        1 MOL      0.122490
      7 N1          3.8720    0.7430    2.7460 n         1 MOL     -0.433238
      8 C3          5.0630    0.4200    2.0060 c3        1 MOL     -0.083124
      9 C4          5.2020   -1.0340    1.6640 c         1 MOL      0.267567
     10 O2          6.0370   -1.4630    0.8880 o         1 MOL     -0.432887
     11 C5          6.3440    0.8720    2.7100 c3        1 MOL     -0.046820
     12 C6          6.4700    0.5370    4.1600 c         1 MOL      0.643441
     13 O3          6.5400    1.4380    4.9970 o         1 MOL     -0.671135
     14 O4          6.6280   -0.6350    4.5690 o         1 MOL     -0.671135
     15 H4          3.6040    0.1720    3.5380 hn        1 MOL      0.287489
     16 H5          5.1000    0.9500    1.0600 h1        1 MOL      0.178033
     17 H6          6.3800    1.9660    2.6640 hc        1 MOL      0.040818
     18 H7          7.2510    0.6710    2.1410 hc        1 MOL      0.040818
     19 N2          4.2720   -1.8610    2.1000 n         1 MOL     -0.308987
     20 C7          4.2930   -3.3380    1.9150 c3        1 MOL     -0.023077
     21 C8          4.6360   -3.7320    0.4230 c         1 MOL      0.446711
     22 O5          5.5790   -4.4660    0.2090 o         1 MOL     -0.528170
     23 C9          5.0850   -4.0320    3.0070 c3        1 MOL     -0.198036
     24 C10         4.5250   -3.9210    4.4980 c3        1 MOL      0.184616
     25 C11         5.4110   -4.6860    5.5130 c3        1 MOL     -0.246641
     26 C12         6.8720   -4.2150    5.4840 c3        1 MOL      0.153471
     27 N3          7.0500   -2.8650    6.0710 n4        1 MOL     -0.389677
     28 H8          3.5710   -1.4640    2.7150 hn        1 MOL      0.256823
     29 H9          3.2510   -3.5450    2.1390 h1        1 MOL      0.024988
     30 H10         6.0420   -3.5000    3.0020 hc        1 MOL      0.109621
     31 H11         5.3110   -5.0640    2.7330 hc        1 MOL      0.109621
     32 H12         3.5190   -4.3160    4.6200 hc        1 MOL     -0.013530
     33 H13         4.4840   -2.8780    4.8050 hc        1 MOL     -0.013530
     34 H14         5.4400   -5.7370    5.2410 hc        1 MOL      0.073809
     35 H15         5.0690   -4.4360    6.5190 hc        1 MOL      0.073809
     36 H16         7.2620   -4.2430    4.4640 hx        1 MOL      0.043201
     37 H17         7.3840   -4.9070    6.1450 hx        1 MOL      0.043201
     38 H18         6.7730   -2.1030    5.4800 hn        1 MOL      0.311330
     39 H19         6.6190   -2.8030    6.9770 hn        1 MOL      0.311330
     40 H20         8.0280   -2.7380    6.2900 hn        1 MOL      0.311330
     41 N4          3.9510   -3.1950   -0.5540 n         1 MOL     -0.507733
     42 C13         4.2150   -3.4880   -2.0140 c3        1 MOL      0.417583
     43 C14         4.6240   -2.1650   -2.7340 c         1 MOL      0.434511
     44 O6          4.3890   -2.0600   -3.9140 o         1 MOL     -0.479285
     45 C15         3.0180   -4.2460   -2.7500 c3        1 MOL     -0.344154
     46 C16         1.6800   -3.5860   -2.5210 c         1 MOL      0.843945
     47 O7          0.6820   -4.2460   -2.7520 o         1 MOL     -0.767739
     48 O8          1.6080   -2.5000   -1.8640 o         1 MOL     -0.767739
     49 H21         3.1920   -2.5410   -0.4110 hn        1 MOL      0.344705
     50 H22         5.0190   -4.2100   -2.1170 h1        1 MOL      0.001580
     51 H23         2.9100   -5.2700   -2.3940 hc        1 MOL      0.043946
     52 H24         3.2530   -4.3120   -3.8100 hc        1 MOL      0.043946
     53 N5          5.1870   -1.1410   -1.9710 n         1 MOL     -0.542121
     54 C17         5.1660    0.2020   -2.4590 c3        1 MOL      0.017489
     55 C18         6.2000    0.6030   -3.5220 c         1 MOL      0.572363
     56 O9          7.0190   -0.1920   -4.0440 o         1 MOL     -0.547109
     57 H25         5.6210   -1.4370   -1.1030 hn        1 MOL      0.332724
     58 H26         5.3120    0.8450   -1.5900 h1        1 MOL      0.099080
     59 H27         4.2160    0.3980   -2.9560 h1        1 MOL      0.099080
     60 N6          6.2500    1.8360   -3.9360 n         1 MOL     -0.568250
     61 C19         5.2860    2.9230   -3.7180 c3        1 MOL      0.343160
     62 C20         5.6410    3.8590   -2.5550 c         1 MOL      0.494688
     63 O10         6.7230    4.4270   -2.4710 o         1 MOL     -0.538940
     64 C21         5.1790    3.7250   -4.9890 c3        1 MOL     -0.305591
     65 C22         3.9250    4.6470   -4.9300 c         1 MOL      0.658225
     66 N7          4.0550    5.9220   -4.7750 n         1 MOL     -0.728726
     67 O11         2.8100    4.1620   -4.9020 o         1 MOL     -0.560312
     68 H28         6.9700    2.0510   -4.6120 hn        1 MOL      0.318440
     69 H29         4.3410    2.4450   -3.4980 h1        1 MOL     -0.026180
     70 H30         4.9960    3.0430   -5.8170 hc        1 MOL      0.082767
     71 H31         6.0950    4.2860   -5.1910 hc        1 MOL      0.082767
     72 H32         4.9710    6.3370   -4.6860 hn        1 MOL      0.356247
     73 H33         3.2770    6.5680   -4.7300 hn        1 MOL      0.356247
     74 N8          4.7890    4.0290   -1.5240 n         1 MOL     -0.527185
     75 C23         3.3540    3.8140   -1.4510 c3        1 MOL     -0.075727
     76 C24         2.5170    4.7530   -0.6140 c         1 MOL      0.679553
     77 O12         2.9270    5.8270   -0.1300 o         1 MOL     -0.563404
     78 H34         5.1650    4.3460   -0.6440 hn        1 MOL      0.341996
     79 H35         3.2090    2.8300   -1.0020 h1        1 MOL      0.068667
     80 H36         2.9150    3.7500   -2.4500 h1        1 MOL      0.068667
     81 N9          1.2150    4.4670   -0.5250 n         1 MOL     -0.680186
     82 C25         0.1670    5.2980   -0.0030 c3        1 MOL      0.348030
     83 C26        -1.0020    4.3780    0.5290 c         1 MOL      0.581902
     84 O13        -1.0880    3.2230    0.0820 o         1 MOL     -0.516468
     85 C27        -0.3040    6.3500   -0.9680 c3        1 MOL     -0.297036
     86 C28        -1.2010    7.3580   -0.2810 ca        1 MOL      0.108817
     87 C29        -2.4010    7.7810   -0.8870 ca        1 MOL     -0.157748
     88 C30        -0.6570    8.0500    0.8730 ca        1 MOL     -0.157748
     89 C31        -3.1900    8.8090   -0.2300 ca        1 MOL     -0.284462
     90 C32        -1.4640    8.9990    1.5770 ca        1 MOL     -0.284462
     91 C33        -2.7430    9.3960    1.0240 ca        1 MOL      0.364471
     92 O14        -3.4530   10.3720    1.6900 oh        1 MOL     -0.533607
     93 H37         1.0750    3.5200   -0.8550 hn        1 MOL      0.318932
     94 H38         0.5760    5.8220    0.8570 h1        1 MOL     -0.002807
     95 H39        -0.8740    5.8360   -1.7430 hc        1 MOL      0.114827
     96 H40         0.5310    6.9710   -1.3140 hc        1 MOL      0.114827
     97 H41        -2.7790    7.2790   -1.7660 ha        1 MOL      0.158273
     98 H42         0.3050    7.8130    1.2950 ha        1 MOL      0.158273
     99 H43        -4.1230    9.1120   -0.6700 ha        1 MOL      0.156499
    100 H44        -1.1210    9.5620    2.4230 ha        1 MOL      0.156499
    101 H45        -3.1770   10.6410    2.5680 ho        1 MOL      0.391387
    102 N10        -1.9530    4.8770    1.4100 n         1 MOL     -0.539667
    103 C34        -3.1100    4.0590    1.7420 c3        1 MOL      0.094091
    104 C35        -4.1430    3.9810    0.5840 c         1 MOL      0.610671
    105 O15        -4.3210    4.9150   -0.2220 o         1 MOL     -0.514332
    106 C36        -3.8030    4.5690    3.0280 c3        1 MOL      0.109095
    107 C37        -4.2740    6.0720    2.8390 c3        1 MOL      0.079350
    108 C38        -4.9820    3.6210    3.4080 c3        1 MOL     -0.340416
    109 C39        -4.9580    6.7260    4.0290 c3        1 MOL     -0.218499
    110 H46        -1.9310    5.8600    1.6370 hn        1 MOL      0.199221
    111 H47        -2.8030    3.0270    1.9220 h1        1 MOL      0.045256
    112 H48        -3.0300    4.6130    3.7910 hc        1 MOL      0.013813
    113 H49        -4.8540    6.1470    1.9190 hc        1 MOL      0.006989
    114 H50        -3.4430    6.7210    2.5350 hc        1 MOL      0.006989
    115 H51        -4.6830    2.5850    3.2690 hc        1 MOL      0.082257
    116 H52        -5.3040    3.7810    4.4400 hc        1 MOL      0.082257
    117 H53        -5.7690    3.7520    2.6590 hc        1 MOL      0.082257
    118 H54        -5.1270    7.8010    3.9040 hc        1 MOL      0.052241
    119 H55        -5.9490    6.3090    4.2310 hc        1 MOL      0.052241
    120 H56        -4.3540    6.6670    4.9320 hc        1 MOL      0.052241
    121 N11        -4.7790    2.7910    0.3700 n         1 MOL     -0.460603
    122 C40        -5.3860    2.3860   -0.8610 c3        1 MOL     -0.006411
    123 C41        -5.0870    0.9140   -1.2680 c         1 MOL      0.705635
    124 O16        -4.5600    0.1570   -0.4860 o         1 MOL     -0.552875
    125 C42        -6.8420    2.7940   -0.8790 c3        1 MOL      0.176405
    126 O17        -7.5010    2.0830    0.1660 oh        1 MOL     -0.611104
    127 H57        -4.6710    2.0600    1.0490 hn        1 MOL      0.275384
    128 H58        -4.9960    2.9790   -1.6860 h1        1 MOL      0.047032
    129 H59        -7.2690    2.5520   -1.8490 h1        1 MOL      0.011023
    130 H60        -6.9540    3.8770   -0.7700 h1        1 MOL      0.011023
    131 H61        -8.4260    2.2950    0.2740 ho        1 MOL      0.405361
    132 N12        -5.4240    0.5890   -2.5420 n         1 MOL     -0.592882
    133 C43        -5.2370   -0.6510   -3.3240 c3        1 MOL      0.156040
    134 C44        -5.6540   -1.9330   -2.5190 c         1 MOL      0.438068
    135 O18        -4.9380   -2.9580   -2.6380 o         1 MOL     -0.473822
    136 C45        -3.7930   -0.7210   -3.8340 c3        1 MOL     -0.263612
    137 H62        -5.8080    1.3870   -3.0320 hn        1 MOL      0.315509
    138 H63        -5.8450   -0.4790   -4.2160 h1        1 MOL      0.067132
    139 H64        -3.6050   -1.4660   -4.6070 hc        1 MOL      0.093230
    140 H65        -3.5130    0.2710   -4.2160 hc        1 MOL      0.093230
    141 H66        -3.1050   -1.0570   -3.0670 hc        1 MOL      0.093230
    142 N13        -6.7660   -1.8110   -1.7270 n         1 MOL     -0.547127
    143 C46        -7.3890   -2.9760   -1.0530 c3        1 MOL      0.469769
    144 C47        -6.4990   -3.7550   -0.0800 c         1 MOL      0.150543
    145 O19        -6.3310   -5.0130   -0.1090 o         1 MOL     -0.519851
    146 C48        -8.1310   -3.8380   -2.0580 c3        1 MOL     -0.322965
    147 H67        -7.2880   -0.9500   -1.7130 hn        1 MOL      0.279510
    148 H68        -8.2160   -2.5940   -0.4440 h1        1 MOL     -0.001849
    149 H69        -7.4620   -4.1570   -2.8520 hc        1 MOL      0.084800
    150 H70        -8.5810   -4.7410   -1.6300 hc        1 MOL      0.084800
    151 H71        -8.9920   -3.3050   -2.4470 hc        1 MOL      0.084800
    152 N14        -5.7190   -2.9940    0.6880 n         1 MOL     -0.048997
    153 C49        -4.8470   -3.5760    1.6440 c3        1 MOL     -0.164194
    154 C50        -5.4670   -3.7280    2.9870 c         1 MOL      0.606370
    155 O20        -5.0470   -4.6100    3.6430 o         1 MOL     -0.529204
    156 C51        -3.5490   -2.7130    1.8330 c3        1 MOL      0.124604
    157 C52        -2.2800   -3.4570    2.2980 c3        1 MOL     -0.073244
    158 C53        -1.7900   -4.2980    1.0780 c         1 MOL      0.659496
    159 O21        -1.1910   -3.7420    0.1750 o         1 MOL     -0.735274
    160 O22        -2.1910   -5.4400    0.9040 o         1 MOL     -0.735274
    161 H72        -6.0240   -2.0280    0.6840 hn        1 MOL      0.147969
    162 H73        -4.5610   -4.5240    1.2070 h1        1 MOL      0.173121
    163 H74        -3.7010   -1.8230    2.4510 hc        1 MOL     -0.004887
    164 H75        -3.3750   -2.4140    0.7990 hc        1 MOL     -0.004887
    165 H76        -2.6070   -4.0250    3.1680 hc        1 MOL     -0.006823
    166 H77        -1.4510   -2.8150    2.5750 hc        1 MOL     -0.006823
    167 N15        -6.4920   -2.9300    3.2950 n         1 MOL     -0.336847
    168 C54        -7.1910   -2.9020    4.5540 c3        1 MOL     -0.165479
    169 H78        -8.2220   -2.5890    4.3900 h1        1 MOL      0.090064
    170 H79        -7.1800   -3.8970    4.9990 h1        1 MOL      0.090064
    171 H80        -6.7000   -2.1980    5.2270 h1        1 MOL      0.090064
    172 H81        -6.8150   -2.3240    2.5510 hn        1 MOL      0.214563
    173 Ca1        -1.0750   -5.7400   -1.5780 Ca        1 MOL      1.813026
    174 O23        -2.2380   -3.7890   -3.0320 oh        1 MOL     -0.864761
    175 H82        -1.7850   -2.9400   -3.0050 ho        1 MOL      0.429787
    176 H83        -3.1640   -3.5690   -3.0070 ho        1 MOL      0.429787
    177 O24        -1.8010   -7.2830   -3.6950 oh        1 MOL     -0.864761
    178 H84        -2.6460   -7.4990   -4.0940 ho        1 MOL      0.429787
    179 H85        -1.1670   -7.8560   -4.1140 ho        1 MOL      0.429787
    180 O25         1.0760   -7.5120   -1.9420 oh        1 MOL     -0.864761
    181 H86         1.5510   -7.9020   -1.2100 ho        1 MOL      0.429787
    182 H87         1.6910   -7.5150   -2.6710 ho        1 MOL      0.429787
    183 O26        -1.6590   -8.2300   -0.6700 oh        1 MOL     -0.864761
    184 H88        -1.3450   -9.1320   -0.6990 ho        1 MOL      0.429787
    185 H89        -2.4780   -8.2710   -0.1850 ho        1 MOL      0.429787
    186 O27         0.9690   -5.4830    0.3070 oh        1 MOL     -0.864761
    187 H90         1.8220   -5.6620    0.6960 ho        1 MOL      0.429787
    188 H91         0.7850   -4.5680    0.5190 ho        1 MOL      0.429787
    189 O28        -4.0380   -6.1270   -1.4070 oh        1 MOL     -0.864761
    190 H92        -4.6400   -5.6390   -0.8390 ho        1 MOL      0.429787
    191 H93        -4.6020   -6.5150   -2.0800 ho        1 MOL      0.429787
@<TRIPOS>BOND
     1    1    2 1   
     2    1    4 1   
     3    1    5 1   
     4    1    6 1   
     5    2    3 2   
     6    2    7 1   
     7    7    8 1   
     8    7   15 1   
     9    8    9 1   
    10    8   11 1   
    11    8   16 1   
    12    9   10 2   
    13    9   19 1   
    14   11   12 1   
    15   11   17 1   
    16   11   18 1   
    17   12   13 1   
    18   12   14 1   
    19   19   20 1   
    20   19   28 1   
    21   20   21 1   
    22   20   23 1   
    23   20   29 1   
    24   21   22 2   
    25   21   41 1   
    26   23   24 1   
    27   23   30 1   
    28   23   31 1   
    29   24   25 1   
    30   24   32 1   
    31   24   33 1   
    32   25   26 1   
    33   25   34 1   
    34   25   35 1   
    35   26   27 1   
    36   26   36 1   
    37   26   37 1   
    38   27   38 1   
    39   27   39 1   
    40   27   40 1   
    41   41   42 1   
    42   41   49 1   
    43   42   43 1   
    44   42   45 1   
    45   42   50 1   
    46   43   44 2   
    47   43   53 1   
    48   45   46 1   
    49   45   51 1   
    50   45   52 1   
    51   46   47 1   
    52   46   48 1   
    53   53   54 1   
    54   53   57 1   
    55   54   55 1   
    56   54   58 1   
    57   54   59 1   
    58   55   56 2   
    59   55   60 1   
    60   60   61 1   
    61   60   68 1   
    62   61   62 1   
    63   61   64 1   
    64   61   69 1   
    65   62   63 2   
    66   62   74 1   
    67   64   65 1   
    68   64   70 1   
    69   64   71 1   
    70   65   66 1   
    71   65   67 2   
    72   66   72 1   
    73   66   73 1   
    74   74   75 1   
    75   74   78 1   
    76   75   76 1   
    77   75   79 1   
    78   75   80 1   
    79   76   77 2   
    80   76   81 1   
    81   81   82 1   
    82   81   93 1   
    83   82   83 1   
    84   82   85 1   
    85   82   94 1   
    86   83   84 2   
    87   83  102 1   
    88   85   86 1   
    89   85   95 1   
    90   85   96 1   
    91   86   87 ar  
    92   86   88 ar  
    93   87   89 ar  
    94   87   97 1   
    95   88   90 ar  
    96   88   98 1   
    97   89   91 ar  
    98   89   99 1   
    99   90   91 ar  
   100   90  100 1   
   101   91   92 1   
   102   92  101 1   
   103  102  103 1   
   104  102  110 1   
   105  103  104 1   
   106  103  106 1   
   107  103  111 1   
   108  104  105 2   
   109  104  121 1   
   110  106  107 1   
   111  106  108 1   
   112  106  112 1   
   113  107  109 1   
   114  107  113 1   
   115  107  114 1   
   116  108  115 1   
   117  108  116 1   
   118  108  117 1   
   119  109  118 1   
   120  109  119 1   
   121  109  120 1   
   122  121  122 1   
   123  121  127 1   
   124  122  123 1   
   125  122  125 1   
   126  122  128 1   
   127  123  124 2   
   128  123  132 1   
   129  125  126 1   
   130  125  129 1   
   131  125  130 1   
   132  126  131 1   
   133  132  133 1   
   134  132  137 1   
   135  133  134 1   
   136  133  136 1   
   137  133  138 1   
   138  134  135 2   
   139  134  142 1   
   140  136  139 1   
   141  136  140 1   
   142  136  141 1   
   143  142  143 1   
   144  142  147 1   
   145  143  144 1   
   146  143  146 1   
   147  143  148 1   
   148  144  145 2   
   149  144  152 1   
   150  146  149 1   
   151  146  150 1   
   152  146  151 1   
   153  152  153 1   
   154  152  161 1   
   155  153  154 1   
   156  153  156 1   
   157  153  162 1   
   158  154  155 2   
   159  154  167 1   
   160  156  157 1   
   161  156  163 1   
   162  156  164 1   
   163  157  158 1   
   164  157  165 1   
   165  157  166 1   
   166  158  159 1   
   167  158  160 1   
   168  167  168 1   
   169  167  172 1   
   170  168  169 1   
   171  168  170 1   
   172  168  171 1   
   173  174  175 1   
   174  174  176 1   
   175  177  178 1   
   176  177  179 1   
   177  180  181 1   
   178  180  182 1   
   179  183  184 1   
   180  183  185 1   
   181  186  187 1   
   182  186  188 1   
   183  189  190 1   
   184  189  191 1   
@<TRIPOS>SUBSTRUCTURE
     1 MOL         1 TEMP              0 ****  ****    0 ROOT
