@<TRIPOS>MOLECULE
MOL
  181   177     1     0     0
SMALL
resp


@<TRIPOS>ATOM
      1 C1          0.9090    7.1660   -1.8160 c3        1 MOL     -0.495987
      2 C2          2.2650    6.8390   -1.2140 c         1 MOL      0.795152
      3 O1          2.5350    7.2070   -0.1110 o         1 MOL     -0.608768
      4 H1          0.7620    8.2460   -1.8130 hc        1 MOL      0.113246
      5 H2          0.8670    6.7970   -2.8410 hc        1 MOL      0.113246
      6 H3          0.1250    6.6910   -1.2260 hc        1 MOL      0.113246
      7 N1          3.0830    6.1410   -1.9600 n         1 MOL     -0.561335
      8 C3          4.4030    5.7320   -1.4570 c3        1 MOL      0.056667
      9 C4          4.3520    4.6010   -0.4610 c         1 MOL      0.576519
     10 O2          3.6840    3.5750   -0.6450 o         1 MOL     -0.540488
     11 C5          5.2820    5.3800   -2.6960 c3        1 MOL     -0.180641
     12 C6          6.7690    5.3120   -2.3670 c         1 MOL      0.683398
     13 O3          7.3230    4.2230   -2.0460 o         1 MOL     -0.724144
     14 O4          7.4000    6.3990   -2.4340 o         1 MOL     -0.724144
     15 H4          2.7460    5.7200   -2.8130 hn        1 MOL      0.302289
     16 H5          4.8380    6.6500   -1.0720 h1        1 MOL      0.071735
     17 H6          5.0760    6.0640   -3.5110 hc        1 MOL      0.017162
     18 H7          4.9030    4.4050   -2.9910 hc        1 MOL      0.017162
     19 N2          4.8930    4.9020    0.7390 n         1 MOL     -0.537725
     20 C7          5.0010    3.8900    1.8140 c3        1 MOL      0.347339
     21 C8          3.6120    3.6490    2.5570 c         1 MOL      0.537582
     22 O5          2.6930    4.4260    2.5290 o         1 MOL     -0.531281
     23 C9          6.0310    4.4040    2.8440 c3        1 MOL     -0.505253
     24 H8          5.3400    5.7740    0.9760 hn        1 MOL      0.321186
     25 H9          5.3280    2.9070    1.4480 h1        1 MOL      0.088294
     26 H10         6.0020    3.8230    3.7690 hc        1 MOL      0.125536
     27 H11         7.0090    4.3700    2.3790 hc        1 MOL      0.125536
     28 H12         5.5900    5.3420    3.1850 hc        1 MOL      0.125536
     29 N3          3.3120    2.5620    3.2860 n         1 MOL     -0.553541
     30 C10         4.1910    1.4020    3.4630 c3        1 MOL      0.229606
     31 C11         4.4050    0.4560    2.2240 c         1 MOL      0.260741
     32 O6          3.6530    0.5260    1.2520 o         1 MOL     -0.331591
     33 C12         3.6570    0.5350    4.6160 c3        1 MOL     -0.408563
     34 C13         2.1860    0.1770    4.4400 c         1 MOL      0.829065
     35 O7          1.6320   -0.4840    5.3350 o         1 MOL     -0.710362
     36 O8          1.5120    0.4970    3.4310 o         1 MOL     -0.710362
     37 H13         2.3610    2.5220    3.6440 hn        1 MOL      0.351635
     38 H14         5.1150    1.8610    3.8020 h1        1 MOL     -0.002823
     39 H15         3.6840    1.1970    5.4900 hc        1 MOL      0.080662
     40 H16         4.2150   -0.3800    4.7990 hc        1 MOL      0.080662
     41 N4          5.4390   -0.4600    2.3330 n         1 MOL     -0.538609
     42 C14         5.9770   -1.3020    1.3180 c3        1 MOL      0.221722
     43 C15         7.1720   -0.7160    0.6200 c         1 MOL      0.603377
     44 O9          7.5860    0.3800    0.9390 o         1 MOL     -0.530530
     45 H17         5.8150   -0.6420    3.2500 hn        1 MOL      0.312450
     46 H18         5.1740   -1.6400    0.6510 h1        1 MOL     -0.008410
     47 H19         6.3230   -2.2040    1.8340 h1        1 MOL     -0.008410
     48 N5          7.9000   -1.3920   -0.2520 n         1 MOL     -0.629367
     49 C16         7.5450   -2.7150   -0.8590 c3        1 MOL      0.118190
     50 C17         6.4950   -2.4650   -1.8960 c         1 MOL      0.625922
     51 O10         6.7040   -1.8140   -2.9430 o         1 MOL     -0.502948
     52 C18         8.8010   -3.3810   -1.5000 c3        1 MOL     -0.446836
     53 C19         8.4150   -4.7500   -2.0450 c         1 MOL      0.684009
     54 N6          8.0620   -5.7050   -1.2530 n         1 MOL     -0.788077
     55 O11         8.2660   -4.9660   -3.2380 o         1 MOL     -0.543933
     56 H20         8.6480   -0.8320   -0.6390 hn        1 MOL      0.385564
     57 H21         7.0870   -3.2930   -0.0560 h1        1 MOL     -0.003820
     58 H22         9.5670   -3.4090   -0.7330 hc        1 MOL      0.157977
     59 H23         9.1530   -2.7550   -2.3130 hc        1 MOL      0.157977
     60 H24         8.1540   -5.5050   -0.2660 hn        1 MOL      0.362809
     61 H25         7.5160   -6.4650   -1.6200 hn        1 MOL      0.362809
     62 N7          5.2630   -3.0770   -1.7390 n         1 MOL     -0.326526
     63 C20         4.1970   -2.9000   -2.7190 c3        1 MOL     -0.427109
     64 C21         2.8470   -3.6020   -2.3230 c         1 MOL      0.677551
     65 O12         1.9460   -3.3550   -3.0140 o         1 MOL     -0.556317
     66 H26         5.0860   -3.5680   -0.8690 hn        1 MOL      0.147848
     67 H27         4.5710   -3.3080   -3.6560 h1        1 MOL      0.199367
     68 H28         4.0490   -1.8220   -2.7250 h1        1 MOL      0.199367
     69 N8          2.7040   -4.3000   -1.2580 n         1 MOL     -0.266650
     70 C22         1.4320   -4.9950   -0.9550 c3        1 MOL     -0.308272
     71 C23         0.2720   -4.0910   -0.6190 c         1 MOL      0.666327
     72 O13         0.4750   -2.9810   -0.0790 o         1 MOL     -0.577777
     73 C24         1.6750   -6.0270    0.0950 c3        1 MOL      0.439511
     74 C25         2.8260   -6.9550   -0.1740 c3        1 MOL     -0.516416
     75 O14         1.9660   -5.3800    1.2860 oh        1 MOL     -0.635188
     76 H29         3.4900   -4.6370   -0.7220 hn        1 MOL      0.261664
     77 H30         1.0690   -5.4710   -1.8720 h1        1 MOL      0.096399
     78 H31         0.6930   -6.5000    0.2030 h1        1 MOL     -0.004506
     79 H32         1.8530   -6.0060    1.9940 ho        1 MOL      0.430174
     80 H33         3.7620   -6.4420    0.0320 hc        1 MOL      0.131507
     81 H34         2.6590   -7.8070    0.4880 hc        1 MOL      0.131507
     82 H35         2.8630   -7.2940   -1.2090 hc        1 MOL      0.131507
     83 N9         -0.9250   -4.5720   -0.8640 n         1 MOL     -0.277027
     84 C26        -2.1390   -3.7370   -0.7080 c3        1 MOL     -0.402544
     85 C27        -2.6880   -3.8320    0.7460 c         1 MOL      0.578908
     86 O15        -2.7680   -4.8950    1.3840 o         1 MOL     -0.583631
     87 C28        -3.2640   -4.1900   -1.6940 c3        1 MOL      0.249222
     88 C29        -4.6840   -3.5380   -1.4220 c3        1 MOL     -0.050485
     89 C30        -2.7080   -3.8460   -3.1100 c3        1 MOL     -0.338592
     90 C31        -5.7560   -3.9370   -2.3570 c3        1 MOL     -0.414572
     91 H36        -1.0220   -5.5150   -1.2130 hn        1 MOL      0.264100
     92 H37        -1.7620   -2.7250   -0.8510 h1        1 MOL      0.275188
     93 H38        -3.3010   -5.2710   -1.6100 hc        1 MOL     -0.006699
     94 H39        -4.4900   -2.4690   -1.3970 hc        1 MOL      0.088347
     95 H40        -5.0950   -3.9380   -0.4920 hc        1 MOL      0.088347
     96 H41        -3.3280   -4.3680   -3.8340 hc        1 MOL      0.083715
     97 H42        -2.6770   -2.7580   -3.2390 hc        1 MOL      0.083715
     98 H43        -1.7040   -4.2510   -3.2070 hc        1 MOL      0.083715
     99 H44        -5.9020   -5.0150   -2.3910 hc        1 MOL      0.095624
    100 H45        -6.6610   -3.5300   -1.9190 hc        1 MOL      0.095624
    101 H46        -5.5050   -3.5730   -3.3480 hc        1 MOL      0.095624
    102 N10        -3.2120   -2.7210    1.2220 n         1 MOL     -0.387799
    103 C32        -3.9380   -2.6390    2.4740 c3        1 MOL     -0.010715
    104 C33        -5.1160   -1.6990    2.5460 c         1 MOL      0.335907
    105 O16        -5.9920   -1.6870    3.4460 o         1 MOL     -0.530437
    106 C34        -2.9360   -2.3250    3.6450 c3        1 MOL      0.002447
    107 C35        -1.9680   -1.2250    3.3010 c         1 MOL      0.729290
    108 O17        -2.2720   -0.0490    3.5210 o         1 MOL     -0.713582
    109 O18        -0.9250   -1.4660    2.5350 o         1 MOL     -0.713582
    110 H47        -3.2540   -1.9820    0.5440 hn        1 MOL      0.293441
    111 H48        -4.3480   -3.6140    2.7190 h1        1 MOL      0.113517
    112 H49        -2.3180   -3.1640    3.9680 hc        1 MOL     -0.004361
    113 H50        -3.5280   -2.0530    4.5200 hc        1 MOL     -0.004361
    114 N11        -5.3320   -1.0110    1.4350 n         1 MOL     -0.346241
    115 C36        -6.5440   -0.2060    1.1300 c3        1 MOL      0.390400
    116 C37        -6.2470    1.2080    0.5200 c         1 MOL      0.191547
    117 O19        -6.8790    1.5430   -0.4790 o         1 MOL     -0.417770
    118 C38        -7.4660   -1.0670    0.2370 c3        1 MOL     -0.221330
    119 C39        -8.9210   -0.6950    0.0550 ca        1 MOL      0.096280
    120 C40        -9.7710   -0.2560    1.1330 ca        1 MOL     -0.169658
    121 C41        -9.4010   -0.9490   -1.2070 ca        1 MOL     -0.169658
    122 C42       -11.1060    0.1380    0.8450 ca        1 MOL     -0.104496
    123 C43       -10.7360   -0.6980   -1.4690 ca        1 MOL     -0.104496
    124 C44       -11.5560   -0.1430   -0.4380 ca        1 MOL     -0.135905
    125 H51        -4.5800   -0.9760    0.7660 hn        1 MOL      0.240859
    126 H52        -7.0120   -0.0060    2.0910 h1        1 MOL     -0.007089
    127 H53        -7.2830   -2.1210    0.4230 hc        1 MOL      0.073365
    128 H54        -7.0320   -0.9010   -0.7480 hc        1 MOL      0.073365
    129 H55        -9.4170   -0.0740    2.1420 ha        1 MOL      0.128385
    130 H56        -8.7290   -1.3530   -1.9430 ha        1 MOL      0.128385
    131 H57       -11.7730    0.5760    1.5730 ha        1 MOL      0.105541
    132 H58       -11.1730   -0.9070   -2.4390 ha        1 MOL      0.105541
    133 H59       -12.5520    0.0390   -0.8040 ha        1 MOL      0.083542
    134 N12        -5.3140    1.9770    1.1120 n         1 MOL     -0.011961
    135 C45        -5.0900    3.3460    0.6620 c3        1 MOL     -0.263692
    136 C46        -4.6620    3.5740   -0.8110 c         1 MOL      0.344786
    137 O20        -4.7240    4.6930   -1.3790 o         1 MOL     -0.495203
    138 C47        -4.0520    3.8530    1.6910 c3        1 MOL      0.144540
    139 C48        -4.3090    3.1130    2.9470 c3        1 MOL     -0.373221
    140 C49        -4.6770    1.7060    2.4070 c3        1 MOL     -0.087522
    141 H60        -6.0560    3.8330    0.8130 h1        1 MOL      0.143542
    142 H61        -3.0380    3.5730    1.4080 hc        1 MOL      0.034798
    143 H62        -4.1090    4.9390    1.8340 hc        1 MOL      0.034798
    144 H63        -3.4370    3.0200    3.5940 hc        1 MOL      0.126643
    145 H64        -5.1580    3.6210    3.4090 hc        1 MOL      0.126643
    146 H65        -3.7800    1.1200    2.2040 h1        1 MOL      0.147133
    147 H66        -5.2630    1.1550    3.1500 h1        1 MOL      0.147133
    148 N13        -4.1960    2.5170   -1.4580 n         1 MOL     -0.057736
    149 C50        -4.0020    2.4210   -2.8870 c3        1 MOL     -0.084057
    150 C51        -5.2450    2.6050   -3.7030 c         1 MOL      0.481295
    151 O21        -5.2400    3.4480   -4.6310 o         1 MOL     -0.543304
    152 C52        -3.3970    1.0790   -3.2160 c3        1 MOL     -0.056172
    153 C53        -2.0590    0.7910   -2.5380 c3        1 MOL      0.090341
    154 C54        -2.1210    0.1070   -1.1220 c         1 MOL      0.691472
    155 O22        -1.0780   -0.1960   -0.5240 o         1 MOL     -0.787336
    156 O23        -3.2180   -0.2520   -0.6090 o         1 MOL     -0.787336
    157 H67        -4.1540    1.6200   -0.9730 hn        1 MOL      0.164236
    158 H68        -3.3380    3.1820   -3.2870 h1        1 MOL      0.083360
    159 H69        -3.2760    0.9390   -4.2940 hc        1 MOL      0.013179
    160 H70        -4.0470    0.3040   -2.8160 hc        1 MOL      0.013179
    161 H71        -1.5350    1.7400   -2.4020 hc        1 MOL     -0.027455
    162 H72        -1.5300    0.1120   -3.2030 hc        1 MOL     -0.027455
    163 N14        -6.4000    2.0140   -3.3530 n         1 MOL     -0.290853
    164 C55        -7.7220    2.4200   -3.8920 c3        1 MOL     -0.322390
    165 H73        -7.8150    3.5050   -3.8460 h1        1 MOL      0.126888
    166 H74        -7.8100    2.0910   -4.9280 h1        1 MOL      0.126888
    167 H75        -8.5140    1.9630   -3.2970 h1        1 MOL      0.126888
    168 H76        -6.4550    1.3920   -2.5540 hn        1 MOL      0.255023
    169 Ca1         0.9760   -0.4200    1.0260 Ca        1 MOL      1.750269
    170 O24         2.7650   -2.2920    1.5900 oh        1 MOL     -0.873640
    171 H77         3.4810   -2.3440    2.2170 ho        1 MOL      0.419535
    172 H78         2.8220   -3.1080    1.0960 ho        1 MOL      0.419535
    173 O25         1.3690    1.9870   -0.3440 oh        1 MOL     -0.873640
    174 H79         2.0520    2.6540   -0.4670 ho        1 MOL      0.419535
    175 H80         0.6510    2.2650   -0.9100 ho        1 MOL      0.419535
    176 O26         2.1610   -0.8540   -1.2690 oh        1 MOL     -0.873640
    177 H81         1.9130   -1.6660   -1.7040 ho        1 MOL      0.419535
    178 H82         2.3350   -0.2380   -1.9820 ho        1 MOL      0.419535
    179 O27        -0.9580    1.4540    1.9990 oh        1 MOL     -0.873640
    180 H83        -1.2460    0.7640    2.5970 ho        1 MOL      0.419535
    181 H84        -1.7770    1.7890    1.6190 ho        1 MOL      0.419535
@<TRIPOS>BOND
     1    1    2 1   
     2    1    4 1   
     3    1    5 1   
     4    1    6 1   
     5    2    3 2   
     6    2    7 1   
     7    7    8 1   
     8    7   15 1   
     9    8    9 1   
    10    8   11 1   
    11    8   16 1   
    12    9   10 2   
    13    9   19 1   
    14   11   12 1   
    15   11   17 1   
    16   11   18 1   
    17   12   13 1   
    18   12   14 1   
    19   19   20 1   
    20   19   24 1   
    21   20   21 1   
    22   20   23 1   
    23   20   25 1   
    24   21   22 2   
    25   21   29 1   
    26   23   26 1   
    27   23   27 1   
    28   23   28 1   
    29   29   30 1   
    30   29   37 1   
    31   30   31 1   
    32   30   33 1   
    33   30   38 1   
    34   31   32 2   
    35   31   41 1   
    36   33   34 1   
    37   33   39 1   
    38   33   40 1   
    39   34   35 1   
    40   34   36 1   
    41   41   42 1   
    42   41   45 1   
    43   42   43 1   
    44   42   46 1   
    45   42   47 1   
    46   43   44 2   
    47   43   48 1   
    48   48   49 1   
    49   48   56 1   
    50   49   50 1   
    51   49   52 1   
    52   49   57 1   
    53   50   51 2   
    54   50   62 1   
    55   52   53 1   
    56   52   58 1   
    57   52   59 1   
    58   53   54 1   
    59   53   55 2   
    60   54   60 1   
    61   54   61 1   
    62   62   63 1   
    63   62   66 1   
    64   63   64 1   
    65   63   67 1   
    66   63   68 1   
    67   64   65 2   
    68   64   69 1   
    69   69   70 1   
    70   69   76 1   
    71   70   71 1   
    72   70   73 1   
    73   70   77 1   
    74   71   72 2   
    75   71   83 1   
    76   73   74 1   
    77   73   75 1   
    78   73   78 1   
    79   74   80 1   
    80   74   81 1   
    81   74   82 1   
    82   75   79 1   
    83   83   84 1   
    84   83   91 1   
    85   84   85 1   
    86   84   87 1   
    87   84   92 1   
    88   85   86 2   
    89   85  102 1   
    90   87   88 1   
    91   87   89 1   
    92   87   93 1   
    93   88   90 1   
    94   88   94 1   
    95   88   95 1   
    96   89   96 1   
    97   89   97 1   
    98   89   98 1   
    99   90   99 1   
   100   90  100 1   
   101   90  101 1   
   102  102  103 1   
   103  102  110 1   
   104  103  104 1   
   105  103  106 1   
   106  103  111 1   
   107  104  105 2   
   108  104  114 1   
   109  106  107 1   
   110  106  112 1   
   111  106  113 1   
   112  107  108 1   
   113  107  109 1   
   114  114  115 1   
   115  114  125 1   
   116  115  116 1   
   117  115  118 1   
   118  115  126 1   
   119  116  117 2   
   120  116  134 1   
   121  118  119 1   
   122  118  127 1   
   123  118  128 1   
   124  119  120 ar  
   125  119  121 ar  
   126  120  122 ar  
   127  120  129 1   
   128  121  123 ar  
   129  121  130 1   
   130  122  124 ar  
   131  122  131 1   
   132  123  124 ar  
   133  123  132 1   
   134  124  133 1   
   135  134  135 1   
   136  134  140 1   
   137  135  136 1   
   138  135  138 1   
   139  135  141 1   
   140  136  137 2   
   141  136  148 1   
   142  138  139 1   
   143  138  142 1   
   144  138  143 1   
   145  139  140 1   
   146  139  144 1   
   147  139  145 1   
   148  140  146 1   
   149  140  147 1   
   150  148  149 1   
   151  148  157 1   
   152  149  150 1   
   153  149  152 1   
   154  149  158 1   
   155  150  151 2   
   156  150  163 1   
   157  152  153 1   
   158  152  159 1   
   159  152  160 1   
   160  153  154 1   
   161  153  161 1   
   162  153  162 1   
   163  154  155 1   
   164  154  156 1   
   165  163  164 1   
   166  163  168 1   
   167  164  165 1   
   168  164  166 1   
   169  164  167 1   
   170  170  171 1   
   171  170  172 1   
   172  173  174 1   
   173  173  175 1   
   174  176  177 1   
   175  176  178 1   
   176  179  180 1   
   177  179  181 1   
@<TRIPOS>SUBSTRUCTURE
     1 MOL         1 TEMP              0 ****  ****    0 ROOT
