@<TRIPOS>MOLECULE
MOL
  181   177     1     0     0
SMALL
resp


@<TRIPOS>ATOM
      1 C1         -0.2390    6.5690    2.8080 c3        1 MOL     -0.335541
      2 C2         -1.4860    6.6200    1.9420 c         1 MOL      0.729397
      3 O1         -1.5070    7.3690    0.9800 o         1 MOL     -0.597601
      4 H1          0.0980    5.5370    2.8980 hc        1 MOL      0.076640
      5 H2          0.5470    7.1680    2.3500 hc        1 MOL      0.076640
      6 H3         -0.4670    6.9640    3.7980 hc        1 MOL      0.076640
      7 N1         -2.5750    5.9150    2.2760 n         1 MOL     -0.658125
      8 C3         -3.8640    5.9580    1.5430 c3        1 MOL      0.272549
      9 C4         -3.8390    4.9280    0.3940 c         1 MOL      0.830797
     10 O2         -3.4070    3.8350    0.5810 o         1 MOL     -0.643386
     11 C5         -5.0000    5.6340    2.5000 c3        1 MOL     -0.377485
     12 C6         -6.3490    5.6840    1.7300 c         1 MOL      0.716346
     13 O3         -7.2630    4.8960    2.0830 o         1 MOL     -0.719452
     14 O4         -6.5520    6.5310    0.8170 o         1 MOL     -0.719452
     15 H4         -2.5230    5.3970    3.1410 hn        1 MOL      0.298430
     16 H5         -3.9950    6.9450    1.0970 h1        1 MOL      0.007627
     17 H6         -5.0260    6.3690    3.3050 hc        1 MOL      0.075342
     18 H7         -4.8430    4.5970    2.8120 hc        1 MOL      0.075342
     19 N2         -4.0810    5.4030   -0.8300 n         1 MOL     -0.816500
     20 C7         -4.2490    4.6650   -2.0420 c3        1 MOL      0.739134
     21 C8         -2.9080    3.9960   -2.5050 c         1 MOL      0.381199
     22 O5         -1.8520    4.6100   -2.4240 o         1 MOL     -0.522292
     23 C9         -4.8700    5.5360   -3.1120 c3        1 MOL     -0.423301
     24 H8         -4.2410    6.4020   -0.8970 hn        1 MOL      0.313795
     25 H9         -4.9490    3.8410   -1.8510 h1        1 MOL     -0.094496
     26 H10        -5.9110    5.7000   -2.8300 hc        1 MOL      0.091489
     27 H11        -4.2830    6.4320   -3.3230 hc        1 MOL      0.091489
     28 H12        -4.8300    4.9930   -4.0590 hc        1 MOL      0.091489
     29 N3         -2.9780    2.7410   -3.0600 n         1 MOL     -0.551502
     30 C10        -4.1690    1.8980   -3.2300 c3        1 MOL      0.120498
     31 C11        -4.5000    0.8880   -2.1480 c         1 MOL      0.599527
     32 O6         -3.6910    0.6830   -1.2300 o         1 MOL     -0.480539
     33 C12        -3.9710    1.0680   -4.4970 c3        1 MOL     -0.496658
     34 C13        -2.7040    0.1940   -4.4930 c         1 MOL      0.891496
     35 O7         -1.8350    0.2050   -3.6370 o         1 MOL     -0.755003
     36 O8         -2.6350   -0.6160   -5.4530 o         1 MOL     -0.755003
     37 H13        -2.0840    2.3250   -3.2620 hn        1 MOL      0.403035
     38 H14        -5.0800    2.4160   -3.5250 h1        1 MOL      0.050149
     39 H15        -3.8660    1.8350   -5.2550 hc        1 MOL      0.102533
     40 H16        -4.8820    0.5120   -4.7310 hc        1 MOL      0.102533
     41 N4         -5.6680    0.2710   -2.1310 n         1 MOL     -0.589220
     42 C14        -5.9740   -0.8330   -1.2510 c3        1 MOL      0.253747
     43 C15        -7.3230   -0.6990   -0.4720 c         1 MOL      0.505671
     44 O9         -8.0110    0.3780   -0.4330 o         1 MOL     -0.491487
     45 H17        -6.2670    0.3780   -2.9310 hn        1 MOL      0.299247
     46 H18        -5.1810   -1.0410   -0.5410 h1        1 MOL     -0.004371
     47 H19        -5.9670   -1.7280   -1.8760 h1        1 MOL     -0.004371
     48 N5         -7.8450   -1.7240    0.2520 n         1 MOL     -0.605326
     49 C16        -7.2390   -3.0230    0.4040 c3        1 MOL      0.219876
     50 C17        -6.0650   -3.0320    1.3780 c         1 MOL      0.538485
     51 O10        -6.0610   -2.1820    2.2650 o         1 MOL     -0.441591
     52 C18        -8.4000   -4.0360    0.6290 c3        1 MOL     -0.504856
     53 C19        -9.1790   -3.6500    1.9300 c         1 MOL      0.682813
     54 N6         -9.1950   -4.4950    2.9670 n         1 MOL     -0.755041
     55 O11        -9.8430   -2.6820    2.0860 o         1 MOL     -0.476967
     56 H20        -8.6650   -1.5000    0.8080 hn        1 MOL      0.345436
     57 H21        -6.8230   -3.3200   -0.5590 h1        1 MOL      0.042835
     58 H22        -7.9500   -5.0260    0.5650 hc        1 MOL      0.134976
     59 H23        -9.0610   -4.0900   -0.2340 hc        1 MOL      0.134976
     60 H24        -8.7230   -5.3800    2.8620 hn        1 MOL      0.347768
     61 H25        -9.8560   -4.3280    3.7070 hn        1 MOL      0.347768
     62 N7         -5.0680   -3.9300    1.3110 n         1 MOL     -0.398192
     63 C20        -4.1630   -4.3370    2.4020 c3        1 MOL     -0.073628
     64 C21        -2.6910   -4.6770    2.0080 c         1 MOL      0.654990
     65 O12        -1.7340   -4.4940    2.7690 o         1 MOL     -0.565944
     66 H26        -4.9540   -4.4710    0.4710 hn        1 MOL      0.168060
     67 H27        -4.5640   -5.2490    2.8380 h1        1 MOL      0.074412
     68 H28        -4.1170   -3.5340    3.1390 h1        1 MOL      0.074412
     69 N8         -2.5560   -5.1270    0.7410 n         1 MOL     -0.536553
     70 C22        -1.2340   -5.3570    0.1270 c3        1 MOL     -0.217398
     71 C23        -0.1690   -4.1690    0.0980 c         1 MOL      0.835290
     72 O13        -0.3700   -3.0050   -0.3180 o         1 MOL     -0.712375
     73 C24        -1.3330   -5.8130   -1.3120 c3        1 MOL      0.272827
     74 C25        -1.6380   -7.3440   -1.2740 c3        1 MOL     -0.405404
     75 O14        -2.3390   -5.1630   -2.0260 oh        1 MOL     -0.649024
     76 H29        -3.3400   -5.1820    0.1090 hn        1 MOL      0.399409
     77 H30        -0.7460   -6.1290    0.7330 h1        1 MOL      0.156627
     78 H31        -0.3770   -5.6980   -1.8210 h1        1 MOL      0.078002
     79 H32        -2.1910   -5.2590   -2.9630 ho        1 MOL      0.451661
     80 H33        -2.6590   -7.4560   -0.9160 hc        1 MOL      0.108327
     81 H34        -1.7360   -7.6890   -2.3040 hc        1 MOL      0.108327
     82 H35        -0.9130   -7.9080   -0.6840 hc        1 MOL      0.108327
     83 N9          1.0180   -4.5480    0.6180 n         1 MOL     -0.642968
     84 C26         2.2570   -3.7380    0.7160 c3        1 MOL     -0.147452
     85 C27         3.0860   -3.7840   -0.6070 c         1 MOL      0.717891
     86 O15         3.3940   -4.8210   -1.1810 o         1 MOL     -0.628795
     87 C28         3.1830   -4.2040    1.9220 c3        1 MOL      0.042810
     88 C29         4.4880   -3.3700    2.1880 c3        1 MOL      0.137473
     89 C30         2.4040   -4.2830    3.2370 c3        1 MOL     -0.110236
     90 C31         5.5160   -4.0190    3.1380 c3        1 MOL     -0.148697
     91 H36         1.0530   -5.4560    1.0770 hn        1 MOL      0.319927
     92 H37         1.9040   -2.7390    0.9840 h1        1 MOL      0.334329
     93 H38         3.4520   -5.2250    1.6850 hc        1 MOL      0.021799
     94 H39         4.2970   -2.3910    2.6210 hc        1 MOL     -0.028514
     95 H40         5.0440   -3.3050    1.2500 hc        1 MOL     -0.028514
     96 H41         1.5800   -4.9770    3.3360 hc        1 MOL      0.030608
     97 H42         3.0930   -4.7590    3.9290 hc        1 MOL      0.030608
     98 H43         2.2840   -3.2560    3.5920 hc        1 MOL      0.030608
     99 H44         5.6850   -5.0170    2.7370 hc        1 MOL      0.024088
    100 H45         6.4480   -3.4400    3.2010 hc        1 MOL      0.024088
    101 H46         5.1980   -4.0720    4.1750 hc        1 MOL      0.024088
    102 N10         3.4300   -2.6300   -1.0690 n         1 MOL     -0.461168
    103 C32         4.0190   -2.3790   -2.3860 c3        1 MOL      0.210879
    104 C33         5.1270   -1.4120   -2.3110 c         1 MOL      0.178814
    105 O16         5.7810   -1.0720   -3.3010 o         1 MOL     -0.480153
    106 C34         2.9540   -1.9660   -3.4980 c3        1 MOL     -0.414622
    107 C35         1.9460   -0.8620   -3.1290 c         1 MOL      1.039378
    108 O17         2.3470    0.3320   -3.1430 o         1 MOL     -0.765943
    109 O18         0.7130   -1.0560   -3.1070 o         1 MOL     -0.765943
    110 H47         3.0070   -1.8400   -0.5970 hn        1 MOL      0.136197
    111 H48         4.3900   -3.2930   -2.8630 h1        1 MOL      0.115248
    112 H49         2.4280   -2.9010   -3.6750 hc        1 MOL      0.088707
    113 H50         3.5120   -1.6770   -4.3900 hc        1 MOL      0.088707
    114 N11         5.4170   -0.8490   -1.1260 n         1 MOL     -0.204502
    115 C36         6.5460    0.0110   -0.9470 c3        1 MOL      0.383061
    116 C37         6.1700    1.0970    0.1260 c         1 MOL      0.188637
    117 O19         6.7800    1.0940    1.1940 o         1 MOL     -0.475047
    118 C38         7.8850   -0.8100   -0.6940 c3        1 MOL     -0.383583
    119 C39         9.0550   -0.1400   -1.3700 ca        1 MOL      0.173269
    120 C40         9.9340    0.5570   -0.5350 ca        1 MOL     -0.167931
    121 C41         9.2940   -0.3210   -2.7120 ca        1 MOL     -0.167931
    122 C42        11.0650    1.2330   -1.0630 ca        1 MOL     -0.150752
    123 C43        10.3770    0.3750   -3.2640 ca        1 MOL     -0.150752
    124 C44        11.2190    1.1450   -2.4740 ca        1 MOL     -0.098695
    125 H51         4.8770   -0.9690   -0.2760 hn        1 MOL      0.194308
    126 H52         6.6720    0.5810   -1.8710 h1        1 MOL      0.008020
    127 H53         7.7180   -1.7630   -1.2030 hc        1 MOL      0.108181
    128 H54         8.0670   -1.0180    0.3610 hc        1 MOL      0.108181
    129 H55         9.6770    0.7300    0.4980 ha        1 MOL      0.135062
    130 H56         8.6830   -0.9420   -3.3330 ha        1 MOL      0.135062
    131 H57        11.7960    1.7870   -0.4820 ha        1 MOL      0.114411
    132 H58        10.5140    0.2190   -4.3190 ha        1 MOL      0.114411
    133 H59        12.0870    1.5980   -2.9290 ha        1 MOL      0.078697
    134 N12         5.2090    2.0150   -0.1480 n         1 MOL     -0.047765
    135 C45         4.9850    3.1560    0.7490 c3        1 MOL     -0.010174
    136 C46         4.4350    2.8600    2.1770 c         1 MOL      0.237344
    137 O20         4.7770    3.5790    3.1010 o         1 MOL     -0.509674
    138 C47         4.0200    4.0610   -0.0060 c3        1 MOL      0.082684
    139 C48         4.0840    3.5050   -1.4900 c3        1 MOL     -0.121207
    140 C49         4.4510    2.0760   -1.4030 c3        1 MOL     -0.070055
    141 H60         5.9460    3.6540    0.8650 h1        1 MOL      0.075089
    142 H61         2.9990    3.8120    0.2970 hc        1 MOL      0.014083
    143 H62         4.2430    5.1270    0.0110 hc        1 MOL      0.014083
    144 H63         3.0630    3.5530   -1.8560 hc        1 MOL      0.026630
    145 H64         4.8790    3.9730   -2.0810 hc        1 MOL      0.026630
    146 H65         3.5770    1.4490   -1.2210 h1        1 MOL      0.137984
    147 H66         5.0070    1.6690   -2.2390 h1        1 MOL      0.137984
    148 N13         3.7140    1.8060    2.4650 n         1 MOL     -0.037225
    149 C50         3.3010    1.3750    3.7630 c3        1 MOL     -0.248866
    150 C51         4.4900    1.0820    4.7400 c         1 MOL      0.459983
    151 O21         4.4050    1.2120    5.9710 o         1 MOL     -0.559887
    152 C52         2.6140    0.0190    3.7210 c3        1 MOL     -0.041839
    153 C53         1.4260   -0.0090    2.6750 c3        1 MOL     -0.125262
    154 C54         1.8070    0.0010    1.2130 c         1 MOL      0.545010
    155 O22         0.8160    0.0460    0.4330 o         1 MOL     -0.732943
    156 O23         2.9580   -0.2390    0.7540 o         1 MOL     -0.732943
    157 H67         3.6110    1.1440    1.7090 hn        1 MOL      0.285017
    158 H68         2.6940    2.1890    4.1630 h1        1 MOL      0.154447
    159 H69         2.2870   -0.2380    4.7370 hc        1 MOL      0.037766
    160 H70         3.2980   -0.8020    3.5290 hc        1 MOL      0.037766
    161 H71         0.8160    0.8240    3.0190 hc        1 MOL      0.057501
    162 H72         0.9760   -0.9840    2.8270 hc        1 MOL      0.057501
    163 N14         5.6680    0.7780    4.1470 n         1 MOL     -0.064573
    164 C55         6.9090    0.6620    4.8710 c3        1 MOL     -0.191262
    165 H73         7.1840   -0.3900    4.9520 h1        1 MOL      0.075046
    166 H74         7.6920    1.2020    4.3390 h1        1 MOL      0.075046
    167 H75         6.7890    1.0830    5.8690 h1        1 MOL      0.075046
    168 H76         5.7000    0.6800    3.1490 hn        1 MOL      0.147154
    169 Ca1        -1.1110   -0.3000   -1.1440 Ca        1 MOL      1.799701
    170 O24        -1.6720   -1.3340    1.3350 oh        1 MOL     -0.889443
    171 H77        -2.2470   -1.4050    2.0950 ho        1 MOL      0.424538
    172 H78        -1.0080   -2.0020    1.4800 ho        1 MOL      0.424538
    173 O25        -2.7830   -2.2880   -1.8740 oh        1 MOL     -0.889443
    174 H79        -3.3420   -2.5040   -2.6140 ho        1 MOL      0.424538
    175 H80        -2.4500   -3.1270   -1.5730 ho        1 MOL      0.424538
    176 O26         0.2790    1.9020   -2.3760 oh        1 MOL     -0.889443
    177 H81         1.0820    1.3960   -2.5140 ho        1 MOL      0.424538
    178 H82         0.5740    2.7240   -1.9870 ho        1 MOL      0.424538
    179 O27        -1.4210    2.0840    0.0230 oh        1 MOL     -0.889443
    180 H83        -0.7720    2.1100    0.7270 ho        1 MOL      0.424538
    181 H84        -1.9830    2.8310    0.1820 ho        1 MOL      0.424538
@<TRIPOS>BOND
     1    1    2 1   
     2    1    4 1   
     3    1    5 1   
     4    1    6 1   
     5    2    3 2   
     6    2    7 1   
     7    7    8 1   
     8    7   15 1   
     9    8    9 1   
    10    8   11 1   
    11    8   16 1   
    12    9   10 2   
    13    9   19 1   
    14   11   12 1   
    15   11   17 1   
    16   11   18 1   
    17   12   13 1   
    18   12   14 1   
    19   19   20 1   
    20   19   24 1   
    21   20   21 1   
    22   20   23 1   
    23   20   25 1   
    24   21   22 2   
    25   21   29 1   
    26   23   26 1   
    27   23   27 1   
    28   23   28 1   
    29   29   30 1   
    30   29   37 1   
    31   30   31 1   
    32   30   33 1   
    33   30   38 1   
    34   31   32 2   
    35   31   41 1   
    36   33   34 1   
    37   33   39 1   
    38   33   40 1   
    39   34   35 1   
    40   34   36 1   
    41   41   42 1   
    42   41   45 1   
    43   42   43 1   
    44   42   46 1   
    45   42   47 1   
    46   43   44 2   
    47   43   48 1   
    48   48   49 1   
    49   48   56 1   
    50   49   50 1   
    51   49   52 1   
    52   49   57 1   
    53   50   51 2   
    54   50   62 1   
    55   52   53 1   
    56   52   58 1   
    57   52   59 1   
    58   53   54 1   
    59   53   55 2   
    60   54   60 1   
    61   54   61 1   
    62   62   63 1   
    63   62   66 1   
    64   63   64 1   
    65   63   67 1   
    66   63   68 1   
    67   64   65 2   
    68   64   69 1   
    69   69   70 1   
    70   69   76 1   
    71   70   71 1   
    72   70   73 1   
    73   70   77 1   
    74   71   72 2   
    75   71   83 1   
    76   73   74 1   
    77   73   75 1   
    78   73   78 1   
    79   74   80 1   
    80   74   81 1   
    81   74   82 1   
    82   75   79 1   
    83   83   84 1   
    84   83   91 1   
    85   84   85 1   
    86   84   87 1   
    87   84   92 1   
    88   85   86 2   
    89   85  102 1   
    90   87   88 1   
    91   87   89 1   
    92   87   93 1   
    93   88   90 1   
    94   88   94 1   
    95   88   95 1   
    96   89   96 1   
    97   89   97 1   
    98   89   98 1   
    99   90   99 1   
   100   90  100 1   
   101   90  101 1   
   102  102  103 1   
   103  102  110 1   
   104  103  104 1   
   105  103  106 1   
   106  103  111 1   
   107  104  105 2   
   108  104  114 1   
   109  106  107 1   
   110  106  112 1   
   111  106  113 1   
   112  107  108 1   
   113  107  109 1   
   114  114  115 1   
   115  114  125 1   
   116  115  116 1   
   117  115  118 1   
   118  115  126 1   
   119  116  117 2   
   120  116  134 1   
   121  118  119 1   
   122  118  127 1   
   123  118  128 1   
   124  119  120 ar  
   125  119  121 ar  
   126  120  122 ar  
   127  120  129 1   
   128  121  123 ar  
   129  121  130 1   
   130  122  124 ar  
   131  122  131 1   
   132  123  124 ar  
   133  123  132 1   
   134  124  133 1   
   135  134  135 1   
   136  134  140 1   
   137  135  136 1   
   138  135  138 1   
   139  135  141 1   
   140  136  137 2   
   141  136  148 1   
   142  138  139 1   
   143  138  142 1   
   144  138  143 1   
   145  139  140 1   
   146  139  144 1   
   147  139  145 1   
   148  140  146 1   
   149  140  147 1   
   150  148  149 1   
   151  148  157 1   
   152  149  150 1   
   153  149  152 1   
   154  149  158 1   
   155  150  151 2   
   156  150  163 1   
   157  152  153 1   
   158  152  159 1   
   159  152  160 1   
   160  153  154 1   
   161  153  161 1   
   162  153  162 1   
   163  154  155 1   
   164  154  156 1   
   165  163  164 1   
   166  163  168 1   
   167  164  165 1   
   168  164  166 1   
   169  164  167 1   
   170  170  171 1   
   171  170  172 1   
   172  173  174 1   
   173  173  175 1   
   174  176  177 1   
   175  176  178 1   
   176  179  180 1   
   177  179  181 1   
@<TRIPOS>SUBSTRUCTURE
     1 MOL         1 TEMP              0 ****  ****    0 ROOT
