@<TRIPOS>MOLECULE
MOL
  178   175     1     0     0
SMALL
resp


@<TRIPOS>ATOM
      1 C1          4.4640   -1.0180    3.7010 c3        1 MOL     -0.483608
      2 C2          5.7340   -0.4380    3.0510 c         1 MOL      0.724506
      3 O1          5.7110    0.1380    1.9790 o         1 MOL     -0.611427
      4 H1          4.5580   -2.1010    3.7770 hc        1 MOL      0.135560
      5 H2          4.3380   -0.5940    4.6970 hc        1 MOL      0.135560
      6 H3          3.5970   -0.7720    3.0880 hc        1 MOL      0.135560
      7 N1          6.8880   -0.6520    3.7110 n         1 MOL     -0.573319
      8 C3          8.2380   -0.4860    3.1590 c3        1 MOL      0.167134
      9 C4          8.5390   -1.5460    2.0560 c         1 MOL      0.719898
     10 O2          8.3110   -2.7830    2.1640 o         1 MOL     -0.611667
     11 C5          9.1980   -0.5880    4.3590 c3        1 MOL     -0.526014
     12 C6         10.6840   -0.6750    4.0440 c         1 MOL      0.876203
     13 O3         11.4670   -0.7420    5.0060 o         1 MOL     -0.757317
     14 O4         11.1720   -0.7130    2.9170 o         1 MOL     -0.757317
     15 H4          6.9050   -1.2410    4.5390 hn        1 MOL      0.298484
     16 H5          8.2910    0.5410    2.8130 h1        1 MOL      0.082167
     17 H6          8.9760   -1.5030    4.9050 hc        1 MOL      0.105715
     18 H7          9.0800    0.3190    4.9600 hc        1 MOL      0.105715
     19 N2          8.7620   -1.1360    0.7800 n         1 MOL     -0.683871
     20 C7          8.8790   -1.9660   -0.4210 c3        1 MOL      0.593642
     21 C8          7.5630   -2.1920   -1.2080 c         1 MOL      0.240316
     22 O5          7.5640   -2.6180   -2.3440 o         1 MOL     -0.500382
     23 C9         10.1390   -1.5540   -1.1660 c3        1 MOL     -0.462479
     24 H8          8.5890   -0.1520    0.6290 hn        1 MOL      0.243654
     25 H9          9.1610   -2.9370   -0.0110 h1        1 MOL      0.016569
     26 H10        10.3540   -2.2750   -1.9550 hc        1 MOL      0.108377
     27 H11         9.9290   -0.5600   -1.5460 hc        1 MOL      0.108377
     28 H12        10.9850   -1.5460   -0.4770 hc        1 MOL      0.108377
     29 N3          6.3870   -1.8800   -0.6170 n         1 MOL     -0.314986
     30 C10         5.0760   -1.9710   -1.1970 c3        1 MOL      0.025025
     31 C11         4.8470   -0.9140   -2.3430 c         1 MOL      0.517008
     32 O6          4.0600   -1.0910   -3.2760 o         1 MOL     -0.494969
     33 C12         4.7200   -3.4090   -1.6520 c3        1 MOL      0.031520
     34 C13         3.2950   -3.7550   -1.7940 c         1 MOL      0.540871
     35 O7          3.0070   -4.7890   -2.4090 o         1 MOL     -0.709229
     36 O8          2.3910   -3.0850   -1.2410 o         1 MOL     -0.709229
     37 H13         6.4200   -1.3480    0.2380 hn        1 MOL      0.202870
     38 H14         4.3910   -1.6630   -0.4120 h1        1 MOL      0.066561
     39 H15         5.1970   -4.1470   -1.0190 hc        1 MOL      0.032176
     40 H16         5.2130   -3.6190   -2.6060 hc        1 MOL      0.032176
     41 N4          5.5620    0.1860   -2.3070 n         1 MOL     -0.351940
     42 C14         5.9390    0.9780   -3.5210 c3        1 MOL     -0.021316
     43 C15         4.8250    1.8920   -4.0280 c         1 MOL      0.491572
     44 O9          4.8380    2.1830   -5.1840 o         1 MOL     -0.531005
     45 H17         6.1760    0.3000   -1.5060 hn        1 MOL      0.260433
     46 H18         6.3650    0.3760   -4.3220 h1        1 MOL      0.074913
     47 H19         6.8440    1.5510   -3.3370 h1        1 MOL      0.074913
     48 N5          3.7810    2.2000   -3.2230 n         1 MOL     -0.571847
     49 C16         2.7170    3.0320   -3.5470 c3        1 MOL      0.546455
     50 C17         2.4160    4.2120   -2.5670 c         1 MOL      0.381637
     51 O10         3.0460    4.3070   -1.5170 o         1 MOL     -0.530077
     52 C18         1.4610    2.1570   -3.7600 c3        1 MOL      0.024889
     53 C19         0.4840    2.7300   -4.7680 c         1 MOL      0.413537
     54 N6         -0.4820    1.9040   -5.0880 n         1 MOL     -0.641469
     55 O11         0.6750    3.8270   -5.3470 o         1 MOL     -0.520113
     56 H20         3.7490    1.7830   -2.2990 hn        1 MOL      0.226521
     57 H21         2.9330    3.5380   -4.4910 h1        1 MOL     -0.066280
     58 H22         0.9400    2.0670   -2.8100 hc        1 MOL      0.029934
     59 H23         1.7230    1.1390   -4.0610 hc        1 MOL      0.029934
     60 H24        -0.6260    1.1570   -4.4370 hn        1 MOL      0.343281
     61 H25        -1.2110    2.3940   -5.5900 hn        1 MOL      0.343281
     62 N7          1.6380    5.1320   -3.0560 n         1 MOL     -0.344147
     63 C20         1.3490    6.3730   -2.3250 c3        1 MOL     -0.240261
     64 C21         0.0940    6.1810   -1.4610 c         1 MOL      0.567980
     65 O12        -0.8970    5.6040   -1.8660 o         1 MOL     -0.492242
     66 H26         1.0930    4.9670   -3.8910 hn        1 MOL      0.245031
     67 H27         1.0250    7.1730   -3.0080 h1        1 MOL      0.131603
     68 H28         2.2460    6.7470   -1.8380 h1        1 MOL      0.131603
     69 N8          0.1910    6.6230   -0.2420 n         1 MOL     -0.455195
     70 C22        -1.0300    6.9710    0.4980 c3        1 MOL     -0.205506
     71 C23        -1.6270    5.7620    1.2260 c         1 MOL      0.364617
     72 O13        -2.8590    5.5380    1.2410 o         1 MOL     -0.534072
     73 C24        -0.9370    8.1860    1.3290 c3        1 MOL      0.428894
     74 C25        -0.0160    8.1000    2.5590 c3        1 MOL     -0.229601
     75 O14        -0.5820    9.3090    0.5840 oh        1 MOL     -0.617430
     76 H29         1.1140    6.9620   -0.0130 hn        1 MOL      0.282036
     77 H30        -1.8060    7.2700   -0.1960 h1        1 MOL      0.157482
     78 H31        -1.9020    8.4060    1.7900 h1        1 MOL      0.036965
     79 H32         0.3360    9.2000    0.3260 ho        1 MOL      0.364833
     80 H33        -0.3100    7.3000    3.2380 hc        1 MOL      0.044791
     81 H34         1.0420    8.0380    2.3010 hc        1 MOL      0.044791
     82 H35        -0.1100    9.0620    3.0700 hc        1 MOL      0.044791
     83 N9         -0.7390    4.8360    1.6020 n         1 MOL     -0.014531
     84 C26        -1.0930    3.6480    2.2620 c3        1 MOL     -0.001839
     85 C27        -0.9560    2.4620    1.2870 c         1 MOL      0.538740
     86 O15         0.0140    2.3930    0.5430 o         1 MOL     -0.508274
     87 C28        -0.2590    3.3530    3.4820 c3        1 MOL      0.183313
     88 C29        -0.1940    4.5420    4.5140 c3        1 MOL     -0.087559
     89 C30        -0.7200    2.0340    4.1640 c3        1 MOL     -0.273406
     90 C31        -1.5750    4.9390    4.9870 c3        1 MOL     -0.041589
     91 H36         0.2390    4.9420    1.3700 hn        1 MOL      0.178033
     92 H37        -2.1070    3.7060    2.6630 h1        1 MOL      0.048000
     93 H38         0.7630    3.3280    3.1140 hc        1 MOL     -0.023012
     94 H39         0.2820    5.3230    3.9060 hc        1 MOL      0.019932
     95 H40         0.4340    4.3770    5.3800 hc        1 MOL      0.019932
     96 H41        -1.8040    2.1350    4.2330 hc        1 MOL      0.069054
     97 H42        -0.4380    1.0960    3.6770 hc        1 MOL      0.069054
     98 H43        -0.3050    2.0720    5.1690 hc        1 MOL      0.069054
     99 H44        -1.5000    5.7950    5.6650 hc        1 MOL      0.005434
    100 H45        -2.2850    5.1520    4.1970 hc        1 MOL      0.005434
    101 H46        -2.0230    4.1500    5.6000 hc        1 MOL      0.005434
    102 N10        -1.9080    1.5080    1.2720 n         1 MOL     -0.729816
    103 C32        -2.0390    0.2830    0.4220 c3        1 MOL      0.648450
    104 C33        -3.5050    0.0210   -0.0890 c         1 MOL      0.136448
    105 O16        -3.8110   -1.2160   -0.3730 o         1 MOL     -0.310486
    106 C34        -1.4230   -0.8860    1.1110 c3        1 MOL     -0.242635
    107 C35        -1.0290   -2.0960    0.1760 c         1 MOL      0.546190
    108 O17        -0.6800   -3.2370    0.6510 o         1 MOL     -0.675573
    109 O18        -0.8570   -1.9200   -1.0280 o         1 MOL     -0.675573
    110 H47        -2.6310    1.5830    1.9650 hn        1 MOL      0.305084
    111 H48        -1.4660    0.4350   -0.4850 h1        1 MOL     -0.014589
    112 H49        -2.1750   -1.2580    1.8030 hc        1 MOL      0.054996
    113 H50        -0.6240   -0.6110    1.7970 hc        1 MOL      0.054996
    114 N11        -4.4060    0.9880   -0.1260 n         1 MOL     -0.399977
    115 C36        -5.7960    0.7480   -0.4770 c3        1 MOL      0.196609
    116 C37        -6.5090   -0.2750    0.4500 c         1 MOL      0.494638
    117 O19        -6.3150   -0.1970    1.6550 o         1 MOL     -0.550429
    118 C38        -6.6540    2.0390   -0.6190 c3        1 MOL     -0.253745
    119 C39        -8.1120    1.7300   -0.6910 ca        1 MOL      0.073865
    120 C40        -8.6720    1.3590   -1.9860 ca        1 MOL     -0.164759
    121 C41        -8.9460    1.8670    0.4390 ca        1 MOL     -0.164759
    122 C42        -9.9650    0.8580   -2.0690 ca        1 MOL     -0.100938
    123 C43       -10.3240    1.5600    0.2130 ca        1 MOL     -0.100938
    124 C44       -10.8190    0.9720   -0.9600 ca        1 MOL     -0.145538
    125 H51        -4.1780    1.7820    0.4660 hn        1 MOL      0.257028
    126 H52        -5.7500    0.3290   -1.4780 h1        1 MOL      0.043415
    127 H53        -6.3100    2.6640   -1.4430 hc        1 MOL      0.105784
    128 H54        -6.5250    2.6750    0.2590 hc        1 MOL      0.105784
    129 H55        -7.9920    1.2640   -2.8190 ha        1 MOL      0.126421
    130 H56        -8.5080    2.0370    1.4100 ha        1 MOL      0.126421
    131 H57       -10.3250    0.4490   -3.0060 ha        1 MOL      0.105113
    132 H58       -10.9730    1.5360    1.0790 ha        1 MOL      0.105113
    133 H59       -11.8300    0.6020   -1.0180 ha        1 MOL      0.116404
    134 N12        -7.2940   -1.2850   -0.0810 n         1 MOL     -0.070218
    135 C45        -8.0540   -2.1770    0.7650 c3        1 MOL     -0.051172
    136 C46        -7.1740   -3.0790    1.5540 c         1 MOL      0.443974
    137 O20        -7.6670   -3.3840    2.5990 o         1 MOL     -0.529211
    138 C47        -8.8600   -2.9200   -0.2330 c3        1 MOL      0.049763
    139 C48        -8.0350   -3.0420   -1.5460 c3        1 MOL      0.032405
    140 C49        -7.2540   -1.7180   -1.4480 c3        1 MOL     -0.065492
    141 H60        -8.6610   -1.5820    1.4480 h1        1 MOL      0.076976
    142 H61        -9.2570   -3.8850    0.0780 hc        1 MOL      0.001382
    143 H62        -9.7920   -2.3890   -0.4090 hc        1 MOL      0.001382
    144 H63        -7.5200   -3.9920   -1.6240 hc        1 MOL      0.006676
    145 H64        -8.7030   -3.0690   -2.4150 hc        1 MOL      0.006676
    146 H65        -6.2180   -1.7650   -1.7970 h1        1 MOL      0.025008
    147 H66        -7.7050   -0.9990   -2.1390 h1        1 MOL      0.025008
    148 N13        -5.9650   -3.4360    1.1090 n         1 MOL     -0.268065
    149 C50        -5.1330   -4.4670    1.7050 c3        1 MOL     -0.092386
    150 C51        -4.8480   -4.0560    3.2080 c         1 MOL      0.467922
    151 O21        -4.8550   -4.9590    4.0850 o         1 MOL     -0.557187
    152 C52        -3.7570   -4.6050    0.9840 c3        1 MOL      0.073115
    153 C53        -3.9380   -5.2010   -0.4660 c3        1 MOL     -0.124740
    154 C54        -2.5230   -5.1680   -1.0580 c         1 MOL      0.547012
    155 O22        -2.2330   -4.5690   -2.1170 o         1 MOL     -0.684158
    156 O23        -1.5370   -5.7910   -0.4030 o         1 MOL     -0.684158
    157 H67        -5.5750   -2.9420    0.3290 hn        1 MOL      0.173870
    158 H68        -5.6000   -5.4500    1.6480 h1        1 MOL      0.097824
    159 H69        -3.0790   -5.2050    1.5930 hc        1 MOL      0.015642
    160 H70        -3.3360   -3.6030    0.9180 hc        1 MOL      0.015642
    161 H71        -4.6430   -4.6060   -1.0490 hc        1 MOL      0.028224
    162 H72        -4.2110   -6.2480   -0.4160 hc        1 MOL      0.028224
    163 N14        -4.6630   -2.7790    3.5630 n         1 MOL     -0.161260
    164 C55        -4.2600   -2.3190    4.9320 c3        1 MOL     -0.401681
    165 H73        -4.0050   -1.2600    4.8990 h1        1 MOL      0.141196
    166 H74        -5.0870   -2.4710    5.6250 h1        1 MOL      0.141196
    167 H75        -3.3950   -2.8900    5.2680 h1        1 MOL      0.141196
    168 H76        -4.7870   -2.0240    2.9080 hn        1 MOL      0.237820
    169 Ca1         0.2830   -4.4190   -1.4420 Ca        1 MOL      1.749308
    170 O24        -0.0160   -6.6530   -2.8930 oh        1 MOL     -0.829617
    171 H77        -0.8710   -7.0210   -2.6990 ho        1 MOL      0.404084
    172 H78         0.4720   -7.3680   -3.3130 ho        1 MOL      0.404084
    173 O25         1.3670   -6.2010    0.3450 oh        1 MOL     -0.829617
    174 H79         2.0430   -6.8370    0.1160 ho        1 MOL      0.404084
    175 H80         1.2950   -6.2440    1.2900 ho        1 MOL      0.404084
    176 O26         0.2500   -3.0790   -3.7160 oh        1 MOL     -0.829617
    177 H81         1.0400   -2.5650   -3.8650 ho        1 MOL      0.404084
    178 H82        -0.2060   -3.0730   -4.5590 ho        1 MOL      0.404084
@<TRIPOS>BOND
     1    1    2 1   
     2    1    4 1   
     3    1    5 1   
     4    1    6 1   
     5    2    3 2   
     6    2    7 1   
     7    7    8 1   
     8    7   15 1   
     9    8    9 1   
    10    8   11 1   
    11    8   16 1   
    12    9   10 2   
    13    9   19 1   
    14   11   12 1   
    15   11   17 1   
    16   11   18 1   
    17   12   13 1   
    18   12   14 1   
    19   19   20 1   
    20   19   24 1   
    21   20   21 1   
    22   20   23 1   
    23   20   25 1   
    24   21   22 2   
    25   21   29 1   
    26   23   26 1   
    27   23   27 1   
    28   23   28 1   
    29   29   30 1   
    30   29   37 1   
    31   30   31 1   
    32   30   33 1   
    33   30   38 1   
    34   31   32 2   
    35   31   41 1   
    36   33   34 1   
    37   33   39 1   
    38   33   40 1   
    39   34   35 1   
    40   34   36 1   
    41   41   42 1   
    42   41   45 1   
    43   42   43 1   
    44   42   46 1   
    45   42   47 1   
    46   43   44 2   
    47   43   48 1   
    48   48   49 1   
    49   48   56 1   
    50   49   50 1   
    51   49   52 1   
    52   49   57 1   
    53   50   51 2   
    54   50   62 1   
    55   52   53 1   
    56   52   58 1   
    57   52   59 1   
    58   53   54 1   
    59   53   55 2   
    60   54   60 1   
    61   54   61 1   
    62   62   63 1   
    63   62   66 1   
    64   63   64 1   
    65   63   67 1   
    66   63   68 1   
    67   64   65 2   
    68   64   69 1   
    69   69   70 1   
    70   69   76 1   
    71   70   71 1   
    72   70   73 1   
    73   70   77 1   
    74   71   72 2   
    75   71   83 1   
    76   73   74 1   
    77   73   75 1   
    78   73   78 1   
    79   74   80 1   
    80   74   81 1   
    81   74   82 1   
    82   75   79 1   
    83   83   84 1   
    84   83   91 1   
    85   84   85 1   
    86   84   87 1   
    87   84   92 1   
    88   85   86 2   
    89   85  102 1   
    90   87   88 1   
    91   87   89 1   
    92   87   93 1   
    93   88   90 1   
    94   88   94 1   
    95   88   95 1   
    96   89   96 1   
    97   89   97 1   
    98   89   98 1   
    99   90   99 1   
   100   90  100 1   
   101   90  101 1   
   102  102  103 1   
   103  102  110 1   
   104  103  104 1   
   105  103  106 1   
   106  103  111 1   
   107  104  105 2   
   108  104  114 1   
   109  106  107 1   
   110  106  112 1   
   111  106  113 1   
   112  107  108 1   
   113  107  109 1   
   114  114  115 1   
   115  114  125 1   
   116  115  116 1   
   117  115  118 1   
   118  115  126 1   
   119  116  117 2   
   120  116  134 1   
   121  118  119 1   
   122  118  127 1   
   123  118  128 1   
   124  119  120 ar  
   125  119  121 ar  
   126  120  122 ar  
   127  120  129 1   
   128  121  123 ar  
   129  121  130 1   
   130  122  124 ar  
   131  122  131 1   
   132  123  124 ar  
   133  123  132 1   
   134  124  133 1   
   135  134  135 1   
   136  134  140 1   
   137  135  136 1   
   138  135  138 1   
   139  135  141 1   
   140  136  137 2   
   141  136  148 1   
   142  138  139 1   
   143  138  142 1   
   144  138  143 1   
   145  139  140 1   
   146  139  144 1   
   147  139  145 1   
   148  140  146 1   
   149  140  147 1   
   150  148  149 1   
   151  148  157 1   
   152  149  150 1   
   153  149  152 1   
   154  149  158 1   
   155  150  151 2   
   156  150  163 1   
   157  152  153 1   
   158  152  159 1   
   159  152  160 1   
   160  153  154 1   
   161  153  161 1   
   162  153  162 1   
   163  154  155 1   
   164  154  156 1   
   165  163  164 1   
   166  163  168 1   
   167  164  165 1   
   168  164  166 1   
   169  164  167 1   
   170  170  171 1   
   171  170  172 1   
   172  173  174 1   
   173  173  175 1   
   174  176  177 1   
   175  176  178 1   
@<TRIPOS>SUBSTRUCTURE
     1 MOL         1 TEMP              0 ****  ****    0 ROOT
