@<TRIPOS>MOLECULE
MOL
  178   175     1     0     0
SMALL
resp


@<TRIPOS>ATOM
      1 C1          2.4770   -3.3670    3.5200 c3        1 MOL     -0.337364
      2 C2          3.3270   -2.0910    3.3210 c         1 MOL      0.600376
      3 O1          3.3290   -1.5500    2.1740 o         1 MOL     -0.534130
      4 H1          1.4930   -3.0920    3.8990 hc        1 MOL      0.085390
      5 H2          2.3680   -3.8840    2.5660 hc        1 MOL      0.085390
      6 H3          2.9710   -4.0250    4.2360 hc        1 MOL      0.085390
      7 N1          4.1490   -1.6600    4.2540 n         1 MOL     -0.562854
      8 C3          5.1860   -0.6480    3.9280 c3        1 MOL      0.313599
      9 C4          6.1800   -1.1060    2.8460 c         1 MOL      0.365300
     10 O2          6.5470   -0.3560    1.9880 o         1 MOL     -0.380317
     11 C5          5.9420   -0.2740    5.2170 c3        1 MOL     -0.181985
     12 C6          7.1470    0.6900    5.0290 c         1 MOL      0.687544
     13 O3          7.0970    1.8990    5.4070 o         1 MOL     -0.702191
     14 O4          8.1610    0.3120    4.4080 o         1 MOL     -0.702191
     15 H4          4.1440   -2.1250    5.1500 hn        1 MOL      0.297126
     16 H5          4.7740    0.2440    3.4570 h1        1 MOL      0.059330
     17 H6          6.2770   -1.1050    5.8460 hc        1 MOL     -0.018677
     18 H7          5.2340    0.3280    5.7850 hc        1 MOL     -0.018677
     19 N2          6.4690   -2.4130    2.7310 n         1 MOL     -0.481426
     20 C7          7.3490   -2.9890    1.7510 c3        1 MOL      0.351933
     21 C8          6.9870   -2.7350    0.3030 c         1 MOL      0.337290
     22 O5          7.8570   -2.5930   -0.5500 o         1 MOL     -0.496173
     23 C9          8.7790   -2.7610    2.1970 c3        1 MOL     -0.504161
     24 H8          6.2340   -3.1060    3.4280 hn        1 MOL      0.258380
     25 H9          7.1100   -4.0470    1.7780 h1        1 MOL     -0.006374
     26 H10         8.9240   -3.2350    3.1750 hc        1 MOL      0.132185
     27 H11         9.4980   -3.2780    1.5640 hc        1 MOL      0.132185
     28 H12         9.0060   -1.6980    2.3090 hc        1 MOL      0.132185
     29 N3          5.6570   -2.5550    0.0520 n         1 MOL     -0.483987
     30 C10         5.1050   -2.2030   -1.3200 c3        1 MOL      0.308790
     31 C11         5.6100   -0.8140   -1.7430 c         1 MOL      0.300388
     32 O6          5.6610   -0.5700   -2.9680 o         1 MOL     -0.473005
     33 C12         5.3270   -3.2320   -2.3620 c3        1 MOL     -0.010275
     34 C13         4.5320   -3.2160   -3.6530 c         1 MOL      0.549258
     35 O7          3.2940   -3.0960   -3.5980 o         1 MOL     -0.692657
     36 O8          5.1360   -3.5160   -4.7460 o         1 MOL     -0.692657
     37 H13         4.9890   -2.8280    0.7480 hn        1 MOL      0.277270
     38 H14         4.0230   -2.1000   -1.1830 h1        1 MOL     -0.024172
     39 H15         4.9790   -4.1070   -1.8200 hc        1 MOL     -0.001882
     40 H16         6.3750   -3.3910   -2.5890 hc        1 MOL     -0.001882
     41 N4          5.8860    0.0760   -0.7570 n         1 MOL      0.051625
     42 C14         6.2680    1.4790   -0.9520 c3        1 MOL     -0.199800
     43 C15         5.4140    2.3180   -1.8490 c         1 MOL      0.658090
     44 O9          5.8970    3.3180   -2.4100 o         1 MOL     -0.587465
     45 H17         5.7400   -0.1640    0.2100 hn        1 MOL      0.077035
     46 H18         7.1770    1.5350   -1.5500 h1        1 MOL      0.079515
     47 H19         6.3070    2.0150   -0.0040 h1        1 MOL      0.079515
     48 N5          4.1570    1.9300   -2.0970 n         1 MOL     -0.313004
     49 C16         3.1660    2.5730   -2.9410 c3        1 MOL     -0.169983
     50 C17         2.6700    3.9180   -2.3400 c         1 MOL      0.596042
     51 O10         2.7120    4.1270   -1.1210 o         1 MOL     -0.543458
     52 C18         1.9610    1.6730   -3.0110 c3        1 MOL     -0.367284
     53 C19         2.2860    0.2990   -3.4850 c         1 MOL      0.536231
     54 N6          3.0320    0.2120   -4.5610 n         1 MOL     -0.591994
     55 O11         1.9440   -0.7330   -2.9900 o         1 MOL     -0.480162
     56 H20         3.7550    1.1060   -1.6750 hn        1 MOL      0.226292
     57 H21         3.5620    2.8760   -3.9160 h1        1 MOL      0.065619
     58 H22         1.3070    2.1500   -3.7430 hc        1 MOL      0.159807
     59 H23         1.4280    1.6160   -2.0670 hc        1 MOL      0.159807
     60 H24         3.1710    1.0210   -5.1410 hn        1 MOL      0.308111
     61 H25         3.0650   -0.7100   -4.9710 hn        1 MOL      0.308111
     62 N7          2.3000    4.8300   -3.2010 n         1 MOL     -0.306669
     63 C20         1.9670    6.2040   -2.8260 c3        1 MOL     -0.358589
     64 C21         0.5310    6.3590   -2.2760 c         1 MOL      0.597198
     65 O12        -0.3430    5.7500   -2.8710 o         1 MOL     -0.484883
     66 H26         2.3780    4.5830   -4.1790 hn        1 MOL      0.284616
     67 H27         2.1100    6.6980   -3.7930 h1        1 MOL      0.148007
     68 H28         2.7310    6.6260   -2.1680 h1        1 MOL      0.148007
     69 N8          0.3000    7.2220   -1.2710 n         1 MOL     -0.529766
     70 C22        -1.0900    7.5150   -0.7180 c3        1 MOL      0.007024
     71 C23        -1.8470    6.2220   -0.2550 c         1 MOL      0.504104
     72 O13        -2.9770    6.0060   -0.5080 o         1 MOL     -0.567779
     73 C24        -0.9930    8.4760    0.4210 c3        1 MOL      0.258117
     74 C25        -2.2880    8.7920    1.1740 c3        1 MOL     -0.323714
     75 O14        -0.1600    7.9130    1.4420 oh        1 MOL     -0.605513
     76 H29         1.1290    7.7160   -0.9530 hn        1 MOL      0.282512
     77 H30        -1.7550    7.9870   -1.4320 h1        1 MOL      0.071969
     78 H31        -0.5100    9.3860    0.0490 h1        1 MOL      0.010500
     79 H32         0.7500    7.9930    1.1530 ho        1 MOL      0.397115
     80 H33        -3.0820    9.1780    0.5290 hc        1 MOL      0.098801
     81 H34        -2.6740    7.9230    1.7020 hc        1 MOL      0.098801
     82 H35        -2.1490    9.5170    1.9810 hc        1 MOL      0.098801
     83 N9         -1.1030    5.4560    0.4740 n         1 MOL     -0.032895
     84 C26        -1.6160    4.2230    1.0690 c3        1 MOL     -0.360464
     85 C27        -1.5940    3.0650    0.0260 c         1 MOL      0.660253
     86 O15        -0.6670    2.9810   -0.7100 o         1 MOL     -0.533440
     87 C28        -0.8840    3.9980    2.4520 c3        1 MOL      0.338373
     88 C29         0.5540    3.8190    2.3580 c3        1 MOL     -0.178948
     89 C30        -1.4230    5.0660    3.5000 c3        1 MOL     -0.380131
     90 C31         1.2480    3.5160    3.6850 c3        1 MOL     -0.494125
     91 H36        -0.1580    5.7500    0.6840 hn        1 MOL      0.119715
     92 H37        -2.6570    4.3600    1.3500 h1        1 MOL      0.091600
     93 H38        -1.3760    3.0660    2.7450 hc        1 MOL     -0.045298
     94 H39         0.9820    4.7820    2.0820 hc        1 MOL      0.156971
     95 H40         0.8100    3.1090    1.5740 hc        1 MOL      0.156971
     96 H41        -1.0750    4.8300    4.5100 hc        1 MOL      0.093115
     97 H42        -1.0040    6.0430    3.2670 hc        1 MOL      0.093115
     98 H43        -2.5060    4.9750    3.4960 hc        1 MOL      0.093115
     99 H44         1.2020    4.3950    4.3120 hc        1 MOL      0.134442
    100 H45         0.7520    2.6470    4.1230 hc        1 MOL      0.134442
    101 H46         2.2400    3.1840    3.3820 hc        1 MOL      0.134442
    102 N10        -2.3770    2.0730    0.3050 n         1 MOL     -0.574097
    103 C32        -2.2880    0.7710   -0.4330 c3        1 MOL      0.263822
    104 C33        -3.6680    0.1040   -0.5850 c         1 MOL      0.481511
    105 O16        -3.7470   -1.0730   -0.6830 o         1 MOL     -0.482608
    106 C34        -1.1270   -0.1370    0.0850 c3        1 MOL      0.034004
    107 C35        -0.5940   -1.1860   -0.8430 c         1 MOL      0.394124
    108 O17         0.2950   -1.9410   -0.4310 o         1 MOL     -0.616720
    109 O18        -0.8920   -1.2950   -2.0470 o         1 MOL     -0.616720
    110 H47        -3.1030    2.2600    0.9740 hn        1 MOL      0.293715
    111 H48        -2.0070    0.9870   -1.4690 h1        1 MOL      0.030477
    112 H49        -1.4200   -0.5140    1.0600 hc        1 MOL      0.022032
    113 H50        -0.3680    0.5830    0.3940 hc        1 MOL      0.022032
    114 N11        -4.8150    0.8450   -0.5180 n         1 MOL     -0.537048
    115 C36        -6.1640    0.2620   -0.6830 c3        1 MOL      0.342150
    116 C37        -6.5250   -0.8070    0.3500 c         1 MOL      0.273361
    117 O19        -6.0890   -0.6220    1.5310 o         1 MOL     -0.535587
    118 C38        -7.1840    1.3950   -0.6730 c3        1 MOL     -0.231357
    119 C39        -8.5760    0.8710   -0.3700 ca        1 MOL     -0.039051
    120 C40        -9.4240    0.5440   -1.4550 ca        1 MOL     -0.071798
    121 C41        -9.0320    0.4760    0.9530 ca        1 MOL     -0.071798
    122 C42       -10.7210    0.1280   -1.2320 ca        1 MOL     -0.201280
    123 C43       -10.3760    0.1200    1.1420 ca        1 MOL     -0.201280
    124 C44       -11.2360   -0.1240    0.0800 ca        1 MOL     -0.023702
    125 H51        -4.6830    1.8470   -0.4730 hn        1 MOL      0.246637
    126 H52        -6.2260   -0.0910   -1.7170 h1        1 MOL     -0.001221
    127 H53        -7.1980    1.8820   -1.6420 hc        1 MOL      0.103467
    128 H54        -6.9360    2.1510    0.0620 hc        1 MOL      0.103467
    129 H55        -9.0670    0.6970   -2.4530 ha        1 MOL      0.114043
    130 H56        -8.3810    0.5950    1.8070 ha        1 MOL      0.114043
    131 H57       -11.3220   -0.1680   -2.0800 ha        1 MOL      0.119560
    132 H58       -10.7200    0.0690    2.1590 ha        1 MOL      0.119560
    133 H59       -12.2270   -0.5380    0.2140 ha        1 MOL      0.090369
    134 N12        -7.0240   -2.0110   -0.0670 n         1 MOL      0.034454
    135 C45        -7.4010   -3.0470    0.9340 c3        1 MOL      0.164100
    136 C46        -6.1770   -3.6390    1.6440 c         1 MOL      0.180155
    137 O20        -6.3700   -4.4090    2.5680 o         1 MOL     -0.485105
    138 C47        -8.2010   -4.1270    0.1820 c3        1 MOL     -0.275617
    139 C48        -8.4640   -3.3920   -1.1480 c3        1 MOL      0.116397
    140 C49        -7.3860   -2.4100   -1.3940 c3        1 MOL      0.169971
    141 H60        -8.0550   -2.6340    1.6950 h1        1 MOL      0.064624
    142 H61        -7.6480   -5.0580    0.0400 hc        1 MOL      0.092632
    143 H62        -9.1930   -4.3090    0.6010 hc        1 MOL      0.092632
    144 H63        -8.4810   -4.0150   -2.0420 hc        1 MOL     -0.042931
    145 H64        -9.3980   -2.8420   -1.0650 hc        1 MOL     -0.042931
    146 H65        -6.5330   -2.8190   -1.9370 h1        1 MOL     -0.035157
    147 H66        -7.8550   -1.5840   -1.9190 h1        1 MOL     -0.035157
    148 N13        -4.9430   -3.4390    1.1600 n         1 MOL     -0.123943
    149 C50        -3.7700   -3.9080    1.9810 c3        1 MOL     -0.049468
    150 C51        -3.6040   -2.9480    3.1670 c         1 MOL      0.399914
    151 O21        -3.1630   -3.4530    4.1980 o         1 MOL     -0.571332
    152 C52        -2.5210   -3.7890    1.0250 c3        1 MOL      0.104472
    153 C53        -2.5090   -4.9610    0.0150 c3        1 MOL     -0.223081
    154 C54        -1.2030   -4.9930   -0.8350 c         1 MOL      0.633736
    155 O22        -1.1790   -4.5720   -2.0270 o         1 MOL     -0.693224
    156 O23        -0.1240   -5.2380   -0.2550 o         1 MOL     -0.693224
    157 H67        -4.8170   -2.9100    0.3100 hn        1 MOL      0.145641
    158 H68        -3.9830   -4.8990    2.3810 h1        1 MOL      0.114236
    159 H69        -1.5890   -3.8180    1.5910 hc        1 MOL      0.022387
    160 H70        -2.4780   -2.7960    0.5890 hc        1 MOL      0.022387
    161 H71        -3.3440   -4.7900   -0.6580 hc        1 MOL      0.031462
    162 H72        -2.6960   -5.8940    0.5400 hc        1 MOL      0.031462
    163 N14        -3.8960   -1.7050    3.0370 n         1 MOL     -0.036379
    164 C55        -3.6910   -0.7620    4.1140 c3        1 MOL     -0.226506
    165 H73        -3.1260    0.0940    3.7440 h1        1 MOL      0.085130
    166 H74        -4.6570   -0.4240    4.4900 h1        1 MOL      0.085130
    167 H75        -3.1360   -1.2440    4.9190 h1        1 MOL      0.085130
    168 H76        -4.3070   -1.3890    2.1600 hn        1 MOL      0.163244
    169 Ca1         1.1290   -3.4580   -2.3810 Ca        1 MOL      1.730110
    170 O24         1.4930   -6.0900   -2.9780 oh        1 MOL     -0.873470
    171 H77         2.3440   -6.4910   -3.1470 ho        1 MOL      0.417687
    172 H78         0.8640   -6.7770   -3.1730 ho        1 MOL      0.417687
    173 O25         2.6620   -4.2800   -0.2160 oh        1 MOL     -0.873470
    174 H79         1.9190   -4.3240    0.3800 ho        1 MOL      0.417687
    175 H80         3.0490   -5.1640   -0.1870 ho        1 MOL      0.417687
    176 O26        -0.0110   -3.3580   -4.9460 oh        1 MOL     -0.873470
    177 H81         0.5360   -2.9560   -5.6150 ho        1 MOL      0.417687
    178 H82        -0.4870   -4.0560   -5.4030 ho        1 MOL      0.417687
@<TRIPOS>BOND
     1    1    2 1   
     2    1    4 1   
     3    1    5 1   
     4    1    6 1   
     5    2    3 2   
     6    2    7 1   
     7    7    8 1   
     8    7   15 1   
     9    8    9 1   
    10    8   11 1   
    11    8   16 1   
    12    9   10 2   
    13    9   19 1   
    14   11   12 1   
    15   11   17 1   
    16   11   18 1   
    17   12   13 1   
    18   12   14 1   
    19   19   20 1   
    20   19   24 1   
    21   20   21 1   
    22   20   23 1   
    23   20   25 1   
    24   21   22 2   
    25   21   29 1   
    26   23   26 1   
    27   23   27 1   
    28   23   28 1   
    29   29   30 1   
    30   29   37 1   
    31   30   31 1   
    32   30   33 1   
    33   30   38 1   
    34   31   32 2   
    35   31   41 1   
    36   33   34 1   
    37   33   39 1   
    38   33   40 1   
    39   34   35 1   
    40   34   36 1   
    41   41   42 1   
    42   41   45 1   
    43   42   43 1   
    44   42   46 1   
    45   42   47 1   
    46   43   44 2   
    47   43   48 1   
    48   48   49 1   
    49   48   56 1   
    50   49   50 1   
    51   49   52 1   
    52   49   57 1   
    53   50   51 2   
    54   50   62 1   
    55   52   53 1   
    56   52   58 1   
    57   52   59 1   
    58   53   54 1   
    59   53   55 2   
    60   54   60 1   
    61   54   61 1   
    62   62   63 1   
    63   62   66 1   
    64   63   64 1   
    65   63   67 1   
    66   63   68 1   
    67   64   65 2   
    68   64   69 1   
    69   69   70 1   
    70   69   76 1   
    71   70   71 1   
    72   70   73 1   
    73   70   77 1   
    74   71   72 2   
    75   71   83 1   
    76   73   74 1   
    77   73   75 1   
    78   73   78 1   
    79   74   80 1   
    80   74   81 1   
    81   74   82 1   
    82   75   79 1   
    83   83   84 1   
    84   83   91 1   
    85   84   85 1   
    86   84   87 1   
    87   84   92 1   
    88   85   86 2   
    89   85  102 1   
    90   87   88 1   
    91   87   89 1   
    92   87   93 1   
    93   88   90 1   
    94   88   94 1   
    95   88   95 1   
    96   89   96 1   
    97   89   97 1   
    98   89   98 1   
    99   90   99 1   
   100   90  100 1   
   101   90  101 1   
   102  102  103 1   
   103  102  110 1   
   104  103  104 1   
   105  103  106 1   
   106  103  111 1   
   107  104  105 2   
   108  104  114 1   
   109  106  107 1   
   110  106  112 1   
   111  106  113 1   
   112  107  108 1   
   113  107  109 1   
   114  114  115 1   
   115  114  125 1   
   116  115  116 1   
   117  115  118 1   
   118  115  126 1   
   119  116  117 2   
   120  116  134 1   
   121  118  119 1   
   122  118  127 1   
   123  118  128 1   
   124  119  120 ar  
   125  119  121 ar  
   126  120  122 ar  
   127  120  129 1   
   128  121  123 ar  
   129  121  130 1   
   130  122  124 ar  
   131  122  131 1   
   132  123  124 ar  
   133  123  132 1   
   134  124  133 1   
   135  134  135 1   
   136  134  140 1   
   137  135  136 1   
   138  135  138 1   
   139  135  141 1   
   140  136  137 2   
   141  136  148 1   
   142  138  139 1   
   143  138  142 1   
   144  138  143 1   
   145  139  140 1   
   146  139  144 1   
   147  139  145 1   
   148  140  146 1   
   149  140  147 1   
   150  148  149 1   
   151  148  157 1   
   152  149  150 1   
   153  149  152 1   
   154  149  158 1   
   155  150  151 2   
   156  150  163 1   
   157  152  153 1   
   158  152  159 1   
   159  152  160 1   
   160  153  154 1   
   161  153  161 1   
   162  153  162 1   
   163  154  155 1   
   164  154  156 1   
   165  163  164 1   
   166  163  168 1   
   167  164  165 1   
   168  164  166 1   
   169  164  167 1   
   170  170  171 1   
   171  170  172 1   
   172  173  174 1   
   173  173  175 1   
   174  176  177 1   
   175  176  178 1   
@<TRIPOS>SUBSTRUCTURE
     1 MOL         1 TEMP              0 ****  ****    0 ROOT
