@<TRIPOS>MOLECULE
MOL
  192   187     1     0     0
SMALL
resp


@<TRIPOS>ATOM
      1 C1          9.3440    0.7290    1.7770 c3        1 MOL     -0.414439
      2 C2          8.2160    0.2030    0.9280 c         1 MOL      0.787490
      3 O1          7.0530    0.3760    1.2500 o         1 MOL     -0.664584
      4 H1          9.2550    1.8110    1.8700 hc        1 MOL      0.104165
      5 H2          9.2970    0.2750    2.7670 hc        1 MOL      0.104165
      6 H3         10.2980    0.4820    1.3080 hc        1 MOL      0.104165
      7 N1          8.4770   -0.4830   -0.1800 n         1 MOL     -0.562088
      8 C3          7.5100   -1.0700   -1.1970 c3        1 MOL      0.081476
      9 C4          6.8000   -2.3480   -0.8130 c         1 MOL      0.316264
     10 O2          6.7290   -3.3300   -1.5880 o         1 MOL     -0.389046
     11 C5          8.2790   -1.3810   -2.4830 c3        1 MOL     -0.377272
     12 C6          9.6310   -2.2060   -2.5160 c         1 MOL      0.762276
     13 O3         10.3240   -2.2030   -3.5780 o         1 MOL     -0.671373
     14 O4          9.9920   -2.9050   -1.5560 o         1 MOL     -0.671373
     15 H4          9.4170   -0.4230   -0.5520 hn        1 MOL      0.301101
     16 H5          6.7640   -0.3020   -1.4120 h1        1 MOL      0.144851
     17 H6          8.5410   -0.3920   -2.8530 hc        1 MOL      0.100040
     18 H7          7.6300   -1.8340   -3.2370 hc        1 MOL      0.100040
     19 N2          6.3890   -2.4230    0.4790 n         1 MOL     -0.144370
     20 C7          5.7490   -3.6480    0.9760 c3        1 MOL      0.178069
     21 C8          4.3980   -3.8380    0.2030 c         1 MOL      0.380614
     22 O5          4.2480   -4.9060   -0.3250 o         1 MOL     -0.490817
     23 C9          5.6190   -3.6740    2.5250 c3        1 MOL      0.083872
     24 C10         6.9770   -3.3960    3.1300 c3        1 MOL     -0.102896
     25 C11         8.1120   -4.4030    2.7040 c3        1 MOL     -0.260097
     26 C12         9.4510   -3.9220    3.3640 c3        1 MOL     -0.116094
     27 N3          9.3280   -4.0380    4.8330 n4        1 MOL     -0.145708
     28 H8          6.7270   -1.6940    1.0920 hn        1 MOL      0.067246
     29 H9          6.2560   -4.5710    0.7350 h1        1 MOL      0.019334
     30 H10         5.2630   -4.6500    2.8570 hc        1 MOL     -0.017854
     31 H11         4.9850   -2.8700    2.8980 hc        1 MOL     -0.017854
     32 H12         6.8690   -3.3760    4.2070 hc        1 MOL      0.040959
     33 H13         7.2150   -2.3480    2.9430 hc        1 MOL      0.040959
     34 H14         8.1990   -4.3310    1.6200 hc        1 MOL      0.148754
     35 H15         7.8690   -5.4460    2.8840 hc        1 MOL      0.148754
     36 H16         9.5950   -2.8740    3.0740 hx        1 MOL      0.139001
     37 H17        10.2240   -4.6270    3.0590 hx        1 MOL      0.139001
     38 H18         8.5770   -3.4560    5.1770 hn        1 MOL      0.259951
     39 H19         9.0280   -4.9900    5.0160 hn        1 MOL      0.259951
     40 H20        10.1680   -3.8960    5.3670 hn        1 MOL      0.259951
     41 N4          3.5200   -2.8060    0.0220 n         1 MOL     -0.398393
     42 C13         3.4770   -1.4610    0.6220 c3        1 MOL      0.088500
     43 C14         3.7840   -0.2540   -0.2990 c         1 MOL      0.210037
     44 O6          3.6080   -0.3080   -1.4960 o         1 MOL     -0.422447
     45 C15         2.1520   -1.3690    1.4180 c3        1 MOL     -0.325676
     46 C16         0.8770   -1.8470    0.7590 c         1 MOL      0.712108
     47 O7          0.3380   -1.0880   -0.0930 o         1 MOL     -0.664362
     48 O8          0.5180   -3.0280    0.8550 o         1 MOL     -0.664362
     49 H21         2.6740   -3.0390   -0.4720 hn        1 MOL      0.365479
     50 H22         4.2120   -1.3920    1.4310 h1        1 MOL      0.119094
     51 H23         1.9520   -0.4330    1.9440 hc        1 MOL      0.051731
     52 H24         2.3740   -2.0220    2.2680 hc        1 MOL      0.051731
     53 N5          4.2170    0.8560    0.3140 n         1 MOL     -0.043329
     54 C17         4.3890    2.2560   -0.1730 c3        1 MOL     -0.282398
     55 C18         3.1210    2.8180   -0.8090 c         1 MOL      0.866516
     56 O9          2.0070    2.2460   -0.7100 o         1 MOL     -0.681782
     57 H25         4.4670    0.6640    1.2650 hn        1 MOL      0.199027
     58 H26         5.1620    2.4180   -0.9160 h1        1 MOL      0.097059
     59 H27         4.5360    2.9020    0.6970 h1        1 MOL      0.097059
     60 N6          3.3030    3.9330   -1.5530 n         1 MOL     -0.566117
     61 C19         2.3270    4.7140   -2.2270 c3        1 MOL      0.336631
     62 C20         2.6860    6.2150   -2.1610 c         1 MOL      0.506045
     63 O10         3.8220    6.6340   -2.0590 o         1 MOL     -0.550309
     64 C21         2.0930    4.2120   -3.6780 c3        1 MOL     -0.405090
     65 C22         1.3910    2.8370   -3.8250 c         1 MOL      0.776948
     66 O11         0.3510    2.5230   -3.1690 o         1 MOL     -0.678826
     67 O12         1.8830    2.0040   -4.5670 o         1 MOL     -0.678826
     68 H28         4.2610    4.2490   -1.5520 hn        1 MOL      0.254212
     69 H29         1.4960    4.6150   -1.5270 h1        1 MOL      0.018478
     70 H30         3.0000    4.2030   -4.2960 hc        1 MOL      0.100085
     71 H31         1.4450    4.8320   -4.2980 hc        1 MOL      0.100085
     72 N7          1.7820    7.1690   -2.2240 n         1 MOL     -0.473567
     73 C23         0.3230    6.9870   -2.4010 c3        1 MOL      0.094995
     74 C24        -0.5260    6.5640   -1.1560 c         1 MOL      0.536006
     75 O13        -0.1650    6.8920   -0.0110 o         1 MOL     -0.527193
     76 H32         2.1030    8.0960   -2.0070 hn        1 MOL      0.328940
     77 H33         0.1460    6.2440   -3.1760 h1        1 MOL      0.025102
     78 H34        -0.1000    7.8600   -2.9060 h1        1 MOL      0.025102
     79 N8         -1.5030    5.6950   -1.4090 n         1 MOL     -0.556605
     80 C25        -2.3340    5.1470   -0.3050 c3        1 MOL      0.116540
     81 C26        -1.5500    4.0170    0.3060 c         1 MOL      0.164226
     82 O14        -0.8360    3.3080   -0.4200 o         1 MOL     -0.513466
     83 C27        -3.7040    4.6040   -0.8450 c3        1 MOL      0.348023
     84 C28        -4.5830    5.6380   -1.5120 c3        1 MOL     -0.370538
     85 O15        -4.3690    3.9690    0.2110 oh        1 MOL     -0.608878
     86 H35        -1.5570    5.2240   -2.3080 hn        1 MOL      0.310395
     87 H36        -2.5320    5.9620    0.4020 h1        1 MOL      0.120061
     88 H37        -3.5000    3.7980   -1.5510 h1        1 MOL      0.033352
     89 H38        -5.2310    3.8520   -0.1660 ho        1 MOL      0.401548
     90 H39        -5.6250    5.3140   -1.5440 hc        1 MOL      0.098965
     91 H40        -4.6210    6.4910   -0.8340 hc        1 MOL      0.098965
     92 H41        -4.2120    5.8870   -2.5040 hc        1 MOL      0.098965
     93 N9         -1.5200    3.8770    1.6390 n         1 MOL     -0.412031
     94 C29        -0.7880    2.9510    2.5080 c3        1 MOL     -0.108934
     95 C30        -1.1720    1.4570    2.2970 c         1 MOL      0.900220
     96 O16        -0.6530    0.7760    1.4310 o         1 MOL     -0.607034
     97 C31         0.7240    3.1710    2.4800 c3        1 MOL      0.231266
     98 C32         1.1000    4.6760    2.3840 c3        1 MOL      0.086232
     99 C33         1.3270    2.5050    3.7270 c3        1 MOL     -0.663928
    100 C34         2.5850    5.0010    2.5710 c3        1 MOL     -0.179820
    101 H42        -2.0850    4.5290    2.1670 hn        1 MOL      0.314747
    102 H43        -1.1700    3.1190    3.5140 h1        1 MOL      0.039450
    103 H44         1.1290    2.6330    1.6240 hc        1 MOL     -0.010540
    104 H45         0.4700    5.2590    3.0630 hc        1 MOL      0.018779
    105 H46         0.8230    5.0210    1.3890 hc        1 MOL      0.018779
    106 H47         2.4010    2.4440    3.5580 hc        1 MOL      0.156395
    107 H48         1.1970    3.0400    4.6690 hc        1 MOL      0.156395
    108 H49         1.0070    1.4750    3.8710 hc        1 MOL      0.156395
    109 H50         2.8300    4.8060    3.6210 hc        1 MOL      0.041180
    110 H51         3.1790    4.3480    1.9380 hc        1 MOL      0.041180
    111 H52         2.7700    6.0610    2.3860 hc        1 MOL      0.041180
    112 N10        -2.1330    0.9930    3.1170 n         1 MOL     -0.539172
    113 C35        -2.5040   -0.4500    3.0560 c3        1 MOL     -0.025767
    114 C36        -3.9820   -0.7590    3.3070 c         1 MOL      0.683940
    115 O17        -4.3490   -1.9140    3.4270 o         1 MOL     -0.557353
    116 C37        -1.7130   -1.2020    4.1710 c3        1 MOL      0.367232
    117 C38        -1.7620   -0.5390    5.5220 c3        1 MOL     -0.200484
    118 O18        -0.3800   -1.3710    3.8330 oh        1 MOL     -0.553647
    119 H53        -2.4640    1.5690    3.8780 hn        1 MOL      0.270505
    120 H54        -2.2940   -0.8070    2.0550 h1        1 MOL      0.054341
    121 H55        -2.0830   -2.2170    4.2900 h1        1 MOL      0.007420
    122 H56        -0.2650   -1.6370    2.9170 ho        1 MOL      0.318130
    123 H57        -1.0120    0.2430    5.4410 hc        1 MOL      0.044445
    124 H58        -2.7650   -0.1750    5.7380 hc        1 MOL      0.044445
    125 H59        -1.6290   -1.3310    6.2550 hc        1 MOL      0.044445
    126 N11        -4.8960    0.2940    3.3610 n         1 MOL     -0.555749
    127 C39        -6.3330   -0.0570    3.2620 c3        1 MOL     -0.081959
    128 C40        -6.6650   -0.3960    1.7830 c         1 MOL      0.645603
    129 O19        -6.7140    0.4580    0.9230 o         1 MOL     -0.573260
    130 C41        -7.1630    1.1630    3.7070 c3        1 MOL      0.699852
    131 C42        -8.6420    0.7210    3.6590 c3        1 MOL     -0.444641
    132 O20        -6.7660    1.7340    4.8820 oh        1 MOL     -0.703223
    133 H60        -4.6750    1.2750    3.2650 hn        1 MOL      0.280044
    134 H61        -6.6800   -0.9010    3.8590 h1        1 MOL      0.067658
    135 H62        -7.0560    2.0110    3.0130 h1        1 MOL     -0.105456
    136 H63        -6.0470    2.3660    4.7890 ho        1 MOL      0.413515
    137 H64        -8.9960    0.5640    2.6390 hc        1 MOL      0.103691
    138 H65        -8.6980   -0.2050    4.2360 hc        1 MOL      0.103691
    139 H66        -9.2390    1.5070    4.1190 hc        1 MOL      0.103691
    140 N12        -6.6940   -1.6950    1.4870 n         1 MOL     -0.671718
    141 C43        -6.5200   -2.4230    0.2000 c3        1 MOL      0.274052
    142 C44        -5.1960   -2.1560   -0.5730 c         1 MOL      0.501006
    143 O21        -4.5960   -1.0720   -0.5520 o         1 MOL     -0.460580
    144 C45        -7.7590   -1.9860   -0.6240 c3        1 MOL     -0.535988
    145 C46        -9.0400   -2.5820    0.0050 c3        1 MOL      0.016995
    146 C47       -10.2450   -2.4500   -0.9270 c3        1 MOL      0.180197
    147 C48       -11.4070   -3.3990   -0.5500 c3        1 MOL     -0.007047
    148 N13       -12.6440   -3.1960   -1.3280 n4        1 MOL     -0.161677
    149 H67        -6.5340   -2.2920    2.2790 hn        1 MOL      0.328220
    150 H68        -6.5930   -3.4840    0.4180 h1        1 MOL      0.050727
    151 H69        -7.5740   -2.2930   -1.6590 hc        1 MOL      0.191450
    152 H70        -7.9200   -0.9150   -0.7160 hc        1 MOL      0.191450
    153 H71        -9.3110   -2.0390    0.9110 hc        1 MOL      0.031324
    154 H72        -8.9650   -3.6580    0.1940 hc        1 MOL      0.031324
    155 H73        -9.8470   -2.6560   -1.9280 hc        1 MOL     -0.025663
    156 H74       -10.7470   -1.4880   -1.0530 hc        1 MOL     -0.025663
    157 H75       -11.5380   -3.3520    0.5340 hx        1 MOL      0.059089
    158 H76       -10.9720   -4.3820   -0.7270 hx        1 MOL      0.059089
    159 H77       -12.5770   -3.3630   -2.3250 hn        1 MOL      0.196085
    160 H78       -13.3880   -3.7530   -0.9300 hn        1 MOL      0.196085
    161 H79       -13.0200   -2.2580   -1.2780 hn        1 MOL      0.196085
    162 N14        -4.7530   -3.1440   -1.3710 n         1 MOL     -0.519882
    163 C49        -3.5970   -3.0270   -2.2280 c3        1 MOL      0.244965
    164 C50        -2.2940   -2.7390   -1.5930 c         1 MOL      0.196363
    165 O22        -1.5560   -1.8960   -2.0970 o         1 MOL     -0.515939
    166 C51        -3.4770   -4.3390   -3.1090 c3        1 MOL      0.117516
    167 C52        -4.6290   -4.4330   -4.0370 c3        1 MOL     -0.204594
    168 C53        -4.5030   -5.5970   -5.0030 c         1 MOL      0.629571
    169 O23        -4.5980   -5.3500   -6.2600 o         1 MOL     -0.629983
    170 O24        -4.1470   -6.7600   -4.6350 o         1 MOL     -0.629983
    171 H80        -5.1690   -4.0540   -1.2320 hn        1 MOL      0.300735
    172 H81        -3.7250   -2.2260   -2.9590 h1        1 MOL      0.022116
    173 H82        -3.4780   -5.2480   -2.5030 hc        1 MOL      0.032528
    174 H83        -2.5400   -4.2200   -3.6610 hc        1 MOL      0.032528
    175 H84        -4.6140   -3.4760   -4.5510 hc        1 MOL      0.003564
    176 H85        -5.6160   -4.5150   -3.5660 hc        1 MOL      0.003564
    177 N15        -1.8790   -3.4170   -0.4880 n         1 MOL     -0.200167
    178 C54        -2.4170   -4.6670    0.0880 c3        1 MOL     -0.116315
    179 H86        -2.5490   -5.4050   -0.7030 h1        1 MOL      0.050975
    180 H87        -1.7210   -5.0550    0.8320 h1        1 MOL      0.050975
    181 H88        -3.3780   -4.4660    0.5600 h1        1 MOL      0.050975
    182 H89        -1.0510   -3.0210   -0.0650 hn        1 MOL      0.318656
    183 Ca1        -0.4920    0.8730   -1.3800 Ca        1 MOL      1.828256
    184 O25        -3.0650    1.1820   -0.7170 oh        1 MOL     -0.905325
    185 H90        -3.7420    1.7240   -1.1350 ho        1 MOL      0.422738
    186 H91        -3.4820    0.3290   -0.6080 ho        1 MOL      0.422738
    187 O26         1.1210   -0.2560   -3.3890 oh        1 MOL     -0.905325
    188 H92         1.6080   -1.0390   -3.6330 ho        1 MOL      0.422738
    189 H93         1.4570    0.4290   -3.9610 ho        1 MOL      0.422738
    190 O27        -1.7400    0.7780   -3.7050 oh        1 MOL     -0.905325
    191 H94        -2.1170   -0.0990   -3.7660 ho        1 MOL      0.422738
    192 H95        -1.4110    0.9620   -4.5870 ho        1 MOL      0.422738
@<TRIPOS>BOND
     1    1    2 1   
     2    1    4 1   
     3    1    5 1   
     4    1    6 1   
     5    2    3 2   
     6    2    7 1   
     7    7    8 1   
     8    7   15 1   
     9    8    9 1   
    10    8   11 1   
    11    8   16 1   
    12    9   10 2   
    13    9   19 1   
    14   11   12 1   
    15   11   17 1   
    16   11   18 1   
    17   12   13 1   
    18   12   14 1   
    19   19   20 1   
    20   19   28 1   
    21   20   21 1   
    22   20   23 1   
    23   20   29 1   
    24   21   22 2   
    25   21   41 1   
    26   23   24 1   
    27   23   30 1   
    28   23   31 1   
    29   24   25 1   
    30   24   32 1   
    31   24   33 1   
    32   25   26 1   
    33   25   34 1   
    34   25   35 1   
    35   26   27 1   
    36   26   36 1   
    37   26   37 1   
    38   27   38 1   
    39   27   39 1   
    40   27   40 1   
    41   41   42 1   
    42   41   49 1   
    43   42   43 1   
    44   42   45 1   
    45   42   50 1   
    46   43   44 2   
    47   43   53 1   
    48   45   46 1   
    49   45   51 1   
    50   45   52 1   
    51   46   47 1   
    52   46   48 1   
    53   53   54 1   
    54   53   57 1   
    55   54   55 1   
    56   54   58 1   
    57   54   59 1   
    58   55   56 2   
    59   55   60 1   
    60   60   61 1   
    61   60   68 1   
    62   61   62 1   
    63   61   64 1   
    64   61   69 1   
    65   62   63 2   
    66   62   72 1   
    67   64   65 1   
    68   64   70 1   
    69   64   71 1   
    70   65   66 1   
    71   65   67 1   
    72   72   73 1   
    73   72   76 1   
    74   73   74 1   
    75   73   77 1   
    76   73   78 1   
    77   74   75 2   
    78   74   79 1   
    79   79   80 1   
    80   79   86 1   
    81   80   81 1   
    82   80   83 1   
    83   80   87 1   
    84   81   82 2   
    85   81   93 1   
    86   83   84 1   
    87   83   85 1   
    88   83   88 1   
    89   84   90 1   
    90   84   91 1   
    91   84   92 1   
    92   85   89 1   
    93   93   94 1   
    94   93  101 1   
    95   94   95 1   
    96   94   97 1   
    97   94  102 1   
    98   95   96 2   
    99   95  112 1   
   100   97   98 1   
   101   97   99 1   
   102   97  103 1   
   103   98  100 1   
   104   98  104 1   
   105   98  105 1   
   106   99  106 1   
   107   99  107 1   
   108   99  108 1   
   109  100  109 1   
   110  100  110 1   
   111  100  111 1   
   112  112  113 1   
   113  112  119 1   
   114  113  114 1   
   115  113  116 1   
   116  113  120 1   
   117  114  115 2   
   118  114  126 1   
   119  116  117 1   
   120  116  118 1   
   121  116  121 1   
   122  117  123 1   
   123  117  124 1   
   124  117  125 1   
   125  118  122 1   
   126  126  127 1   
   127  126  133 1   
   128  127  128 1   
   129  127  130 1   
   130  127  134 1   
   131  128  129 2   
   132  128  140 1   
   133  130  131 1   
   134  130  132 1   
   135  130  135 1   
   136  131  137 1   
   137  131  138 1   
   138  131  139 1   
   139  132  136 1   
   140  140  141 1   
   141  140  149 1   
   142  141  142 1   
   143  141  144 1   
   144  141  150 1   
   145  142  143 2   
   146  142  162 1   
   147  144  145 1   
   148  144  151 1   
   149  144  152 1   
   150  145  146 1   
   151  145  153 1   
   152  145  154 1   
   153  146  147 1   
   154  146  155 1   
   155  146  156 1   
   156  147  148 1   
   157  147  157 1   
   158  147  158 1   
   159  148  159 1   
   160  148  160 1   
   161  148  161 1   
   162  162  163 1   
   163  162  171 1   
   164  163  164 1   
   165  163  166 1   
   166  163  172 1   
   167  164  165 2   
   168  164  177 1   
   169  166  167 1   
   170  166  173 1   
   171  166  174 1   
   172  167  168 1   
   173  167  175 1   
   174  167  176 1   
   175  168  169 1   
   176  168  170 1   
   177  177  178 1   
   178  177  182 1   
   179  178  179 1   
   180  178  180 1   
   181  178  181 1   
   182  184  185 1   
   183  184  186 1   
   184  187  188 1   
   185  187  189 1   
   186  190  191 1   
   187  190  192 1   
@<TRIPOS>SUBSTRUCTURE
     1 MOL         1 TEMP              0 ****  ****    0 ROOT
