@<TRIPOS>MOLECULE
MOL
  182   178     1     0     0
SMALL
resp


@<TRIPOS>ATOM
      1 C1          0.3560   -3.3830    6.3460 c3        1 MOL     -0.374074
      2 C2          0.4550   -3.2190    4.8200 c         1 MOL      0.776037
      3 O1         -0.5520   -3.3080    4.1210 o         1 MOL     -0.575926
      4 H1          0.2480   -2.4020    6.8090 hc        1 MOL      0.106024
      5 H2         -0.5100   -3.9970    6.5900 hc        1 MOL      0.106024
      6 H3          1.2600   -3.8630    6.7190 hc        1 MOL      0.106024
      7 N1          1.7180   -3.1370    4.2690 n         1 MOL     -0.607929
      8 C3          1.9360   -2.9620    2.8980 c3        1 MOL      0.092222
      9 C4          1.7230   -4.3140    2.1540 c         1 MOL      0.523379
     10 O2          1.7740   -5.3910    2.7690 o         1 MOL     -0.522379
     11 C5          3.2990   -2.2340    2.6700 c3        1 MOL     -0.240168
     12 C6          3.4110   -1.4690    1.3190 c         1 MOL      0.545378
     13 O3          3.9910   -0.3790    1.3780 o         1 MOL     -0.652646
     14 O4          2.8850   -1.8930    0.2770 o         1 MOL     -0.652646
     15 H4          2.5250   -3.1960    4.8680 hn        1 MOL      0.319528
     16 H5          1.1540   -2.3240    2.5080 h1        1 MOL      0.123416
     17 H6          4.0420   -3.0300    2.7290 hc        1 MOL      0.094976
     18 H7          3.3920   -1.5320    3.5010 hc        1 MOL      0.094976
     19 N2          1.3840   -4.1790    0.8550 n         1 MOL     -0.472775
     20 C7          1.3020   -5.2890   -0.0910 c3        1 MOL      0.026721
     21 C8          2.5680   -5.3510   -0.9950 c         1 MOL      0.534319
     22 O5          2.6920   -6.4830   -1.5340 o         1 MOL     -0.567979
     23 C9         -0.0770   -4.9640   -0.7930 c3        1 MOL     -0.052833
     24 C10        -0.5890   -6.2390   -1.4450 c3        1 MOL      0.054749
     25 C11        -1.9790   -6.0760   -2.0860 c3        1 MOL     -0.356695
     26 C12        -2.1660   -4.9560   -3.1110 c3        1 MOL      0.125104
     27 N3         -1.3270   -5.0330   -4.3190 n4        1 MOL     -0.347326
     28 H8          1.4250   -3.2920    0.3730 hn        1 MOL      0.303275
     29 H9          1.2530   -6.2080    0.4980 h1        1 MOL      0.107636
     30 H10         0.0540   -4.0780   -1.4010 hc        1 MOL      0.044470
     31 H11        -0.7860   -4.8170    0.0310 hc        1 MOL      0.044470
     32 H12        -0.5910   -7.0120   -0.6760 hc        1 MOL      0.028447
     33 H13         0.1360   -6.6440   -2.1540 hc        1 MOL      0.028447
     34 H14        -2.6270   -5.7880   -1.2620 hc        1 MOL      0.147567
     35 H15        -2.3540   -7.0310   -2.4580 hc        1 MOL      0.147567
     36 H16        -1.9380   -3.9990   -2.6350 hx        1 MOL      0.053228
     37 H17        -3.2140   -4.9190   -3.4130 hx        1 MOL      0.053228
     38 H18        -1.5400   -4.2250   -4.8940 hn        1 MOL      0.285414
     39 H19        -0.3610   -4.9770   -4.0220 hn        1 MOL      0.285414
     40 H20        -1.5550   -5.9160   -4.7430 hn        1 MOL      0.285414
     41 N4          3.3920   -4.2910   -1.1020 n         1 MOL     -0.542727
     42 C13         4.7300   -4.3290   -1.8420 c3        1 MOL      0.362423
     43 C14         5.9030   -4.0180   -0.8950 c         1 MOL      0.372285
     44 O6          6.9880   -4.6340   -1.1140 o         1 MOL     -0.539785
     45 C15         4.7180   -3.4110   -3.0300 c3        1 MOL     -0.465717
     46 C16         4.0560   -2.0700   -2.8120 c         1 MOL      0.946371
     47 O7          2.9320   -1.8410   -3.2810 o         1 MOL     -0.827075
     48 O8          4.6120   -1.1660   -2.1110 o         1 MOL     -0.827075
     49 H21         3.0390   -3.4480   -0.6660 hn        1 MOL      0.293660
     50 H22         5.0030   -5.3100   -2.2230 h1        1 MOL      0.044070
     51 H23         4.1100   -3.9320   -3.7740 hc        1 MOL      0.122949
     52 H24         5.7700   -3.3020   -3.3050 hc        1 MOL      0.122949
     53 N5          5.7120   -3.2090    0.1070 n         1 MOL     -0.089790
     54 C17         6.7970   -2.8520    1.0260 c3        1 MOL     -0.056078
     55 C18         7.2230   -1.3340    0.9410 c         1 MOL      0.518527
     56 O9          8.0430   -0.8820    1.7330 o         1 MOL     -0.549854
     57 H25         4.8740   -2.6420    0.0500 hn        1 MOL     -0.037552
     58 H26         7.6780   -3.4800    0.8620 h1        1 MOL      0.082094
     59 H27         6.4060   -2.9930    2.0320 h1        1 MOL      0.082094
     60 N6          6.7340   -0.5950   -0.0560 n         1 MOL     -0.204640
     61 C19         7.3000    0.6740   -0.5100 c3        1 MOL      0.147174
     62 C20         6.2370    1.7480   -0.4390 c         1 MOL      0.307213
     63 O10         5.0080    1.4940   -0.3070 o         1 MOL     -0.321004
     64 C21         7.8250    0.5450   -1.9850 c3        1 MOL     -0.271971
     65 C22         9.1880   -0.1310   -2.0580 c         1 MOL      0.654836
     66 N7         10.1340    0.3600   -2.8510 n         1 MOL     -0.805229
     67 O11         9.4610   -1.0990   -1.3890 o         1 MOL     -0.499480
     68 H28         6.0430   -0.9780   -0.6780 hn        1 MOL      0.189425
     69 H29         8.1450    0.9160    0.1260 h1        1 MOL      0.066904
     70 H30         7.8360    1.5470   -2.4090 hc        1 MOL      0.075431
     71 H31         7.1420    0.0430   -2.6620 hc        1 MOL      0.075431
     72 H32        10.0680    1.1360   -3.4960 hn        1 MOL      0.358973
     73 H33        10.9970   -0.1760   -2.8720 hn        1 MOL      0.358973
     74 N8          6.6040    3.0340   -0.5500 n         1 MOL     -0.312672
     75 C23         5.7190    4.1760   -0.7860 c3        1 MOL     -0.223062
     76 C24         4.5970    4.3550    0.2470 c         1 MOL      0.650878
     77 O12         4.7800    4.2280    1.4530 o         1 MOL     -0.516824
     78 H34         7.6050    3.1580   -0.6360 hn        1 MOL      0.274823
     79 H35         5.3590    4.2220   -1.8140 h1        1 MOL      0.101920
     80 H36         6.3920    5.0120   -0.6010 h1        1 MOL      0.101920
     81 N9          3.4770    4.7890   -0.2710 n         1 MOL     -0.676225
     82 C25         2.2510    4.7460    0.6100 c3        1 MOL      0.287058
     83 C26         1.7690    3.3370    0.9940 c         1 MOL      0.688997
     84 O13         2.3250    2.3690    0.4850 o         1 MOL     -0.582203
     85 C27         1.1260    5.4530   -0.1450 c3        1 MOL     -0.232582
     86 C28         1.4260    6.8740   -0.5540 ca        1 MOL      0.180411
     87 C29         1.6890    7.7920    0.4500 ca        1 MOL     -0.231460
     88 C30         1.3020    7.3590   -1.8990 ca        1 MOL     -0.231460
     89 C31         1.8670    9.1370    0.1200 ca        1 MOL     -0.157202
     90 C32         1.6340    8.7320   -2.2420 ca        1 MOL     -0.157202
     91 C33         2.0100    9.5730   -1.2530 ca        1 MOL      0.221389
     92 O14         2.1060   10.9320   -1.3910 oh        1 MOL     -0.464247
     93 H37         3.4710    4.8320   -1.2730 hn        1 MOL      0.329004
     94 H38         2.3920    5.3410    1.5100 h1        1 MOL      0.045454
     95 H39         0.2560    5.4870    0.5120 hc        1 MOL      0.051068
     96 H40         0.9080    4.9590   -1.0900 hc        1 MOL      0.051068
     97 H41         1.7140    7.5460    1.5090 ha        1 MOL      0.136287
     98 H42         1.1390    6.6370   -2.6840 ha        1 MOL      0.136287
     99 H43         1.9540    9.9140    0.8680 ha        1 MOL      0.139974
    100 H44         1.6870    9.0840   -3.2700 ha        1 MOL      0.139974
    101 H45         2.2570   11.3890   -0.5620 ho        1 MOL      0.367197
    102 N10         0.7440    3.2480    1.8880 n         1 MOL     -0.740977
    103 C34         0.1390    2.1240    2.5130 c3        1 MOL      0.035570
    104 C35        -0.1150    0.9640    1.4720 c         1 MOL      0.501407
    105 O15         0.7360    0.3640    0.8180 o         1 MOL     -0.462686
    106 C36         0.9870    1.6820    3.7230 c3        1 MOL      0.105101
    107 C37         0.5140    0.3830    4.4080 c3        1 MOL     -0.121563
    108 C38         1.0330    2.7660    4.7810 c3        1 MOL     -0.255135
    109 C39        -0.9190    0.2420    4.9860 c3        1 MOL     -0.045007
    110 H46         0.3430    4.1260    2.1940 hn        1 MOL      0.356868
    111 H47        -0.7790    2.5410    2.9370 h1        1 MOL      0.125111
    112 H48         2.0390    1.5040    3.4730 hc        1 MOL      0.091720
    113 H49         1.1840    0.1220    5.2310 hc        1 MOL      0.043881
    114 H50         0.6600   -0.4420    3.7210 hc        1 MOL      0.043881
    115 H51         1.7160    3.5530    4.4700 hc        1 MOL      0.066673
    116 H52         0.0030    3.1310    4.8920 hc        1 MOL      0.066673
    117 H53         1.3160    2.3400    5.7450 hc        1 MOL      0.066673
    118 H54        -0.9790   -0.6000    5.6700 hc        1 MOL      0.007239
    119 H55        -1.1400    1.1500    5.5590 hc        1 MOL      0.007239
    120 H56        -1.5760    0.2390    4.1190 hc        1 MOL      0.007239
    121 N11        -1.3720    0.6350    1.3160 n         1 MOL     -0.256506
    122 C40        -1.8620   -0.4360    0.4970 c3        1 MOL     -0.105039
    123 C41        -3.3600   -0.5590    0.1260 c         1 MOL      0.643115
    124 O16        -3.8020   -1.2350   -0.7880 o         1 MOL     -0.540794
    125 C42        -1.5070   -1.7410    1.2500 c3        1 MOL      0.193926
    126 O17        -2.1720   -1.7510    2.4950 oh        1 MOL     -0.623829
    127 H57        -2.0740    1.1560    1.8240 hn        1 MOL      0.158683
    128 H58        -1.2750   -0.4550   -0.4220 h1        1 MOL      0.077480
    129 H59        -0.4440   -1.7280    1.4590 h1        1 MOL     -0.005650
    130 H60        -1.7580   -2.6210    0.6630 h1        1 MOL     -0.005650
    131 H61        -1.7560   -2.4570    2.9980 ho        1 MOL      0.408778
    132 N12        -4.1480    0.2670    0.7820 n         1 MOL     -0.664649
    133 C43        -5.5600    0.3260    0.4290 c3        1 MOL      0.220728
    134 C44        -5.7010    0.8470   -0.9980 c         1 MOL      0.509637
    135 O18        -4.8570    1.4790   -1.6550 o         1 MOL     -0.564900
    136 C45        -6.3020    1.2530    1.4210 c3        1 MOL     -0.318385
    137 H62        -3.8200    0.8300    1.5540 hn        1 MOL      0.401603
    138 H63        -6.0330   -0.6540    0.5330 h1        1 MOL      0.095661
    139 H64        -5.8770    2.2610    1.4040 hc        1 MOL      0.095304
    140 H65        -7.3650    1.1790    1.1950 hc        1 MOL      0.095304
    141 H66        -6.0660    0.8090    2.3870 hc        1 MOL      0.095304
    142 N13        -6.8540    0.6240   -1.6090 n         1 MOL     -0.524711
    143 C46        -8.1040   -0.0810   -1.1810 c3        1 MOL      0.464733
    144 C47        -9.3290    0.5840   -1.8510 c         1 MOL      0.252160
    145 O19        -9.3220    0.8790   -3.0250 o         1 MOL     -0.506978
    146 C48        -7.9840   -1.5640   -1.3670 c3        1 MOL     -0.156692
    147 H67        -6.8780    1.0580   -2.5110 hn        1 MOL      0.284422
    148 H68        -8.2820    0.0840   -0.1180 h1        1 MOL     -0.078599
    149 H69        -6.9500   -1.8690   -1.2310 hc        1 MOL      0.043309
    150 H70        -8.5580   -2.0740   -0.5960 hc        1 MOL      0.043309
    151 H71        -8.2640   -1.8940   -2.3740 hc        1 MOL      0.043309
    152 N14       -10.5400    0.5400   -1.3070 n         1 MOL     -0.143154
    153 C49       -10.8500    0.3570    0.0950 c3        1 MOL     -0.310538
    154 C50       -10.4110    1.5960    0.9560 c         1 MOL      0.488958
    155 O20        -9.9000    1.4300    2.0560 o         1 MOL     -0.494463
    156 C51       -12.3150    0.1390    0.2160 c3        1 MOL     -0.130937
    157 C52       -12.8070   -1.3550    0.0550 c3        1 MOL     -0.223422
    158 C53       -12.5920   -1.8480   -1.4070 c         1 MOL      0.705637
    159 O21       -12.2800   -3.0130   -1.6550 o         1 MOL     -0.658370
    160 O22       -12.8310   -1.0970   -2.3910 o         1 MOL     -0.658370
    161 H72       -11.3250    0.7240   -1.9160 hn        1 MOL      0.268193
    162 H73       -10.4640   -0.5490    0.5680 h1        1 MOL      0.190827
    163 H74       -12.8700    0.8100   -0.4460 hc        1 MOL      0.070891
    164 H75       -12.5450    0.3580    1.2590 hc        1 MOL      0.070891
    165 H76       -13.8580   -1.3760    0.3230 hc        1 MOL      0.062624
    166 H77       -12.3190   -1.9780    0.7910 hc        1 MOL      0.062624
    167 N15       -10.3620    2.8030    0.2910 n         1 MOL     -0.355958
    168 C54        -9.5450    3.9470    0.7520 c3        1 MOL     -0.064919
    169 H78       -10.1880    4.6750    1.2470 h1        1 MOL      0.061581
    170 H79        -8.7880    3.5950    1.4520 h1        1 MOL      0.061581
    171 H80        -9.0590    4.4160   -0.1040 h1        1 MOL      0.061581
    172 H81       -10.8740    3.0380   -0.5500 hn        1 MOL      0.282893
    173 Ca1         2.7070    0.3180   -1.0910 Ca        1 MOL      1.804658
    174 O23         0.6300    1.7590   -1.8110 oh        1 MOL     -0.907072
    175 H82        -0.3190    1.6270   -1.7650 ho        1 MOL      0.435277
    176 H83         0.7420    2.4560   -2.4590 ho        1 MOL      0.435277
    177 O24         3.9410    2.0920   -2.9780 oh        1 MOL     -0.907072
    178 H84         4.8180    2.4500   -3.1090 ho        1 MOL      0.435277
    179 H85         3.5000    2.2390   -3.8210 ho        1 MOL      0.435277
    180 O25         0.7160   -1.2490   -2.2060 oh        1 MOL     -0.907072
    181 H86         1.3790   -1.7110   -2.7240 ho        1 MOL      0.435277
    182 H87        -0.0090   -1.1170   -2.8170 ho        1 MOL      0.435277
@<TRIPOS>BOND
     1    1    2 1   
     2    1    4 1   
     3    1    5 1   
     4    1    6 1   
     5    2    3 2   
     6    2    7 1   
     7    7    8 1   
     8    7   15 1   
     9    8    9 1   
    10    8   11 1   
    11    8   16 1   
    12    9   10 2   
    13    9   19 1   
    14   11   12 1   
    15   11   17 1   
    16   11   18 1   
    17   12   13 1   
    18   12   14 1   
    19   19   20 1   
    20   19   28 1   
    21   20   21 1   
    22   20   23 1   
    23   20   29 1   
    24   21   22 2   
    25   21   41 1   
    26   23   24 1   
    27   23   30 1   
    28   23   31 1   
    29   24   25 1   
    30   24   32 1   
    31   24   33 1   
    32   25   26 1   
    33   25   34 1   
    34   25   35 1   
    35   26   27 1   
    36   26   36 1   
    37   26   37 1   
    38   27   38 1   
    39   27   39 1   
    40   27   40 1   
    41   41   42 1   
    42   41   49 1   
    43   42   43 1   
    44   42   45 1   
    45   42   50 1   
    46   43   44 2   
    47   43   53 1   
    48   45   46 1   
    49   45   51 1   
    50   45   52 1   
    51   46   47 1   
    52   46   48 1   
    53   53   54 1   
    54   53   57 1   
    55   54   55 1   
    56   54   58 1   
    57   54   59 1   
    58   55   56 2   
    59   55   60 1   
    60   60   61 1   
    61   60   68 1   
    62   61   62 1   
    63   61   64 1   
    64   61   69 1   
    65   62   63 2   
    66   62   74 1   
    67   64   65 1   
    68   64   70 1   
    69   64   71 1   
    70   65   66 1   
    71   65   67 2   
    72   66   72 1   
    73   66   73 1   
    74   74   75 1   
    75   74   78 1   
    76   75   76 1   
    77   75   79 1   
    78   75   80 1   
    79   76   77 2   
    80   76   81 1   
    81   81   82 1   
    82   81   93 1   
    83   82   83 1   
    84   82   85 1   
    85   82   94 1   
    86   83   84 2   
    87   83  102 1   
    88   85   86 1   
    89   85   95 1   
    90   85   96 1   
    91   86   87 ar  
    92   86   88 ar  
    93   87   89 ar  
    94   87   97 1   
    95   88   90 ar  
    96   88   98 1   
    97   89   91 ar  
    98   89   99 1   
    99   90   91 ar  
   100   90  100 1   
   101   91   92 1   
   102   92  101 1   
   103  102  103 1   
   104  102  110 1   
   105  103  104 1   
   106  103  106 1   
   107  103  111 1   
   108  104  105 2   
   109  104  121 1   
   110  106  107 1   
   111  106  108 1   
   112  106  112 1   
   113  107  109 1   
   114  107  113 1   
   115  107  114 1   
   116  108  115 1   
   117  108  116 1   
   118  108  117 1   
   119  109  118 1   
   120  109  119 1   
   121  109  120 1   
   122  121  122 1   
   123  121  127 1   
   124  122  123 1   
   125  122  125 1   
   126  122  128 1   
   127  123  124 2   
   128  123  132 1   
   129  125  126 1   
   130  125  129 1   
   131  125  130 1   
   132  126  131 1   
   133  132  133 1   
   134  132  137 1   
   135  133  134 1   
   136  133  136 1   
   137  133  138 1   
   138  134  135 2   
   139  134  142 1   
   140  136  139 1   
   141  136  140 1   
   142  136  141 1   
   143  142  143 1   
   144  142  147 1   
   145  143  144 1   
   146  143  146 1   
   147  143  148 1   
   148  144  145 2   
   149  144  152 1   
   150  146  149 1   
   151  146  150 1   
   152  146  151 1   
   153  152  153 1   
   154  152  161 1   
   155  153  154 1   
   156  153  156 1   
   157  153  162 1   
   158  154  155 2   
   159  154  167 1   
   160  156  157 1   
   161  156  163 1   
   162  156  164 1   
   163  157  158 1   
   164  157  165 1   
   165  157  166 1   
   166  158  159 1   
   167  158  160 1   
   168  167  168 1   
   169  167  172 1   
   170  168  169 1   
   171  168  170 1   
   172  168  171 1   
   173  174  175 1   
   174  174  176 1   
   175  177  178 1   
   176  177  179 1   
   177  180  181 1   
   178  180  182 1   
@<TRIPOS>SUBSTRUCTURE
     1 MOL         1 TEMP              0 ****  ****    0 ROOT
