@<TRIPOS>MOLECULE
MOL
  189   185     1     0     0
SMALL
resp


@<TRIPOS>ATOM
      1 C1          4.7210   -3.9880    3.7490 c3        1 MOL     -0.381123
      2 C2          5.2430   -2.9590    2.7200 c         1 MOL      0.753186
      3 O1          4.5710   -2.6130    1.7380 o         1 MOL     -0.679486
      4 H1          3.6950   -3.7410    4.0210 hc        1 MOL      0.097669
      5 H2          4.7500   -4.9870    3.3120 hc        1 MOL      0.097669
      6 H3          5.3490   -3.9620    4.6390 hc        1 MOL      0.097669
      7 N1          6.4360   -2.3770    3.0070 n         1 MOL     -0.667081
      8 C3          7.1850   -1.2980    2.2670 c3        1 MOL      0.044533
      9 C4          6.1230   -0.2940    1.7480 c         1 MOL      0.403610
     10 O2          5.5560   -0.3820    0.6660 o         1 MOL     -0.498734
     11 C5          8.2610   -1.8770    1.3450 c3        1 MOL      0.047659
     12 C6          7.9550   -2.9430    0.2930 c         1 MOL      0.614810
     13 O3          6.7620   -3.2510   -0.0350 o         1 MOL     -0.684824
     14 O4          8.9250   -3.5090   -0.2390 o         1 MOL     -0.684824
     15 H4          6.9460   -2.6030    3.8480 hn        1 MOL      0.345890
     16 H5          7.6980   -0.7640    3.0540 h1        1 MOL      0.028342
     17 H6          9.0880   -2.2440    1.9580 hc        1 MOL     -0.002670
     18 H7          8.6520   -0.9880    0.8420 hc        1 MOL     -0.002670
     19 N2          5.8600    0.6300    2.7010 n         1 MOL     -0.377736
     20 C7          5.1010    1.8250    2.4920 c3        1 MOL      0.002387
     21 C8          5.8090    2.8150    1.5850 c         1 MOL      0.404489
     22 O5          6.1620    3.9110    2.0240 o         1 MOL     -0.535568
     23 C9          3.5070    1.7130    2.3320 c3        1 MOL      0.277705
     24 C10         2.9320    3.0000    2.8520 c3        1 MOL     -0.249450
     25 C11         2.9060    0.4660    3.1140 c3        1 MOL      0.029883
     26 C12         3.1470    3.2240    4.3680 c3        1 MOL     -0.010066
     27 H8          6.4140    0.4810    3.5340 hn        1 MOL      0.277609
     28 H9          5.3000    2.2840    3.4510 h1        1 MOL      0.057498
     29 H10         3.2270    1.5460    1.2930 hc        1 MOL     -0.099293
     30 H11         1.8690    2.9630    2.6510 hc        1 MOL      0.079497
     31 H12         3.3650    3.8510    2.3070 hc        1 MOL      0.079497
     32 H13         3.0720   -0.4010    2.4820 hc        1 MOL     -0.015584
     33 H14         3.4590    0.2690    4.0350 hc        1 MOL     -0.015584
     34 H15         1.8500    0.5820    3.3650 hc        1 MOL     -0.015584
     35 H16         4.1480    3.6230    4.5140 hc        1 MOL     -0.009720
     36 H17         2.4480    3.8530    4.9250 hc        1 MOL     -0.009720
     37 H18         3.0420    2.2810    4.9100 hc        1 MOL     -0.009720
     38 N3          5.9460    2.3840    0.3040 n         1 MOL     -0.221064
     39 C13         6.6160    3.2220   -0.7460 c3        1 MOL      0.036308
     40 C14         5.8510    4.4850   -1.1590 c         1 MOL      0.557063
     41 O6          6.3800    5.5480   -1.1710 o         1 MOL     -0.565177
     42 C15         7.0190    2.4180   -2.0190 c3        1 MOL     -0.139093
     43 C16         8.0720    1.3310   -1.8160 c         1 MOL      0.727268
     44 O7          8.1140    0.4180   -2.7020 o         1 MOL     -0.699360
     45 O8          8.7730    1.4420   -0.7980 o         1 MOL     -0.699360
     46 H19         5.5650    1.4790    0.0950 hn        1 MOL      0.304038
     47 H20         7.5200    3.5940   -0.2600 h1        1 MOL      0.054056
     48 H21         7.4790    3.1110   -2.7260 hc        1 MOL      0.018350
     49 H22         6.0960    2.0220   -2.4470 hc        1 MOL      0.018350
     50 N4          4.5800    4.4230   -1.7070 n         1 MOL     -0.532692
     51 C17         3.6230    3.3270   -1.7430 c3        1 MOL      0.107210
     52 C18         2.3840    3.6100   -2.7330 c         1 MOL      0.504814
     53 O9          1.8900    4.7140   -2.7920 o         1 MOL     -0.555309
     54 H23         4.2170    5.3280   -1.9750 hn        1 MOL      0.282485
     55 H24         3.2210    3.1970   -0.7440 h1        1 MOL      0.057765
     56 H25         4.0430    2.3860   -2.1120 h1        1 MOL      0.057765
     57 N5          1.7630    2.5950   -3.3580 n         1 MOL     -0.490771
     58 C19         2.0250    1.1410   -3.3600 c3        1 MOL      0.340123
     59 C20         2.1610    0.5370   -1.9700 c         1 MOL      0.019962
     60 O10         3.2270    0.0580   -1.6100 o         1 MOL     -0.538413
     61 C21         3.2080    0.9230   -4.3450 c3        1 MOL     -0.429050
     62 C22         3.5930   -0.5430   -4.7110 c         1 MOL      0.793728
     63 O11         2.7230   -1.4490   -4.5690 o         1 MOL     -0.699530
     64 O12         4.7380   -0.8200   -5.1070 o         1 MOL     -0.699530
     65 H26         0.9930    2.9470   -3.9100 hn        1 MOL      0.265644
     66 H27         1.2090    0.6180   -3.8520 h1        1 MOL      0.058018
     67 H28         4.1000    1.4480   -4.0110 hc        1 MOL      0.097498
     68 H29         2.8930    1.3820   -5.2800 hc        1 MOL      0.097498
     69 N6          1.1810    0.4960   -1.0630 n         1 MOL     -0.026650
     70 C23        -0.1650    1.0930   -1.2410 c3        1 MOL     -0.030461
     71 C24        -0.2940    2.5570   -0.6590 c         1 MOL      0.419276
     72 O13         0.7020    3.1780   -0.1490 o         1 MOL     -0.462302
     73 H30         1.4400    0.2390   -0.1210 hn        1 MOL      0.218648
     74 H31        -0.8780    0.4710   -0.7080 h1        1 MOL      0.056971
     75 H32        -0.4700    1.0610   -2.2850 h1        1 MOL      0.056971
     76 N7         -1.5500    3.0210   -0.6900 n         1 MOL     -0.382356
     77 C25        -2.0560    4.3000   -0.1580 c3        1 MOL      0.004477
     78 C26        -2.3910    4.3310    1.3380 c         1 MOL      0.439886
     79 O14        -2.1960    5.2720    2.1060 o         1 MOL     -0.506088
     80 C27        -3.1760    4.9440   -1.0220 c3        1 MOL      0.140674
     81 C28        -3.1820    6.4800   -0.8700 c3        1 MOL     -0.278162
     82 C29        -4.3890    7.0590   -1.6590 c         1 MOL      0.705539
     83 N8         -4.1480    7.3340   -2.9290 n         1 MOL     -0.859848
     84 O15        -5.4500    7.2450   -1.1680 o         1 MOL     -0.572990
     85 H33        -2.2520    2.4840   -1.1790 hn        1 MOL      0.248173
     86 H34        -1.1970    4.9620   -0.2670 h1        1 MOL      0.101610
     87 H35        -4.1570    4.6870   -0.6220 hc        1 MOL     -0.015825
     88 H36        -3.0600    4.6640   -2.0660 hc        1 MOL     -0.015825
     89 H37        -2.2340    6.8170   -1.2760 hc        1 MOL      0.084081
     90 H38        -3.3480    6.8390    0.1410 hc        1 MOL      0.084081
     91 H39        -3.2190    7.1830   -3.2820 hn        1 MOL      0.382018
     92 H40        -4.9690    7.5410   -3.4800 hn        1 MOL      0.382018
     93 N9         -2.8250    3.1010    1.8360 n         1 MOL     -0.162045
     94 C30        -3.1570    2.8700    3.2160 c3        1 MOL     -0.419869
     95 C31        -4.5340    2.1840    3.3990 c         1 MOL      0.590576
     96 O16        -4.9950    2.1120    4.5220 o         1 MOL     -0.555574
     97 C32        -2.0450    2.1870    3.9370 c3        1 MOL      0.259583
     98 C33        -0.8950    3.1180    4.2120 c3        1 MOL     -0.250212
     99 C34        -1.5690    0.9410    3.3470 c3        1 MOL     -0.250212
    100 H41        -2.8860    2.3200    1.2050 hn        1 MOL      0.213043
    101 H42        -3.2540    3.8510    3.6940 h1        1 MOL      0.186819
    102 H43        -2.4270    1.8660    4.9040 hc        1 MOL      0.000456
    103 H44        -0.1240    2.7040    4.8470 hc        1 MOL      0.070189
    104 H45        -0.5270    3.4250    3.2360 hc        1 MOL      0.070189
    105 H46        -1.2760    3.9960    4.7260 hc        1 MOL      0.070189
    106 H47        -0.8620    0.5070    4.0500 hc        1 MOL      0.070189
    107 H48        -2.4190    0.3410    3.0060 hc        1 MOL      0.070189
    108 H49        -0.9050    1.1720    2.5130 hc        1 MOL      0.070189
    109 N10        -5.1310    1.7340    2.3110 n         1 MOL     -0.314812
    110 C35        -6.4640    1.0700    2.2660 c3        1 MOL      0.066228
    111 C36        -6.3190   -0.4410    1.7770 c         1 MOL      0.547103
    112 O17        -6.8750   -1.3220    2.4560 o         1 MOL     -0.569200
    113 C37        -7.3580    1.9040    1.3140 c3        1 MOL     -0.127686
    114 C38        -6.7150    2.3000    0.0280 c         1 MOL      0.522061
    115 N11        -7.1790    3.3620   -0.5780 n         1 MOL     -0.627752
    116 O18        -5.6660    1.7750   -0.3330 o         1 MOL     -0.535645
    117 H50        -4.7370    1.8550    1.3920 hn        1 MOL      0.165406
    118 H51        -6.8990    0.9380    3.2570 h1        1 MOL      0.074817
    119 H52        -7.6420    2.7890    1.8900 hc        1 MOL      0.061478
    120 H53        -8.3370    1.4670    1.1360 hc        1 MOL      0.061478
    121 H54        -8.1140    3.7230   -0.4650 hn        1 MOL      0.336361
    122 H55        -6.6990    3.7120   -1.3980 hn        1 MOL      0.336361
    123 N12        -5.7460   -0.7630    0.6090 n         1 MOL     -0.556431
    124 C39        -5.8700   -2.0360   -0.0980 c3        1 MOL      0.240762
    125 C40        -4.5410   -2.7690   -0.3400 c         1 MOL      0.533565
    126 O19        -3.5340   -2.1280   -0.5320 o         1 MOL     -0.488747
    127 C41        -6.8060   -1.8720   -1.3370 c3        1 MOL     -0.172867
    128 C42        -7.9540   -0.9550   -1.2900 ca        1 MOL      0.063093
    129 C43        -9.0620   -1.5040   -0.6280 ca        1 MOL     -0.103475
    130 C44        -7.9460    0.3610   -1.8910 ca        1 MOL     -0.103475
    131 C45       -10.2470   -0.7630   -0.6740 ca        1 MOL     -0.322530
    132 C46        -9.1240    1.0360   -1.9030 ca        1 MOL     -0.322530
    133 C47       -10.2830    0.4410   -1.4030 ca        1 MOL      0.386254
    134 O20       -11.4810    1.1080   -1.5230 oh        1 MOL     -0.542219
    135 H56        -5.2700   -0.0240    0.1140 hn        1 MOL      0.323040
    136 H57        -6.4280   -2.7360    0.5250 h1        1 MOL      0.006324
    137 H58        -7.1250   -2.8730   -1.6490 hc        1 MOL      0.069947
    138 H59        -6.2880   -1.4860   -2.2190 hc        1 MOL      0.069947
    139 H60        -9.0350   -2.4710   -0.1290 ha        1 MOL      0.144190
    140 H61        -7.0290    0.8120   -2.2480 ha        1 MOL      0.144190
    141 H62       -11.1350   -1.2930   -0.3420 ha        1 MOL      0.139829
    142 H63        -9.2010    1.9770   -2.4340 ha        1 MOL      0.139829
    143 H64       -12.2440    0.6170   -1.2010 ho        1 MOL      0.375252
    144 N13        -4.5720   -4.1030   -0.4370 n         1 MOL     -0.641052
    145 C48        -3.4920   -5.0770   -0.7670 c3        1 MOL      0.126516
    146 C49        -2.1850   -4.9960    0.0310 c         1 MOL      0.201748
    147 O21        -1.2430   -5.6920   -0.2440 o         1 MOL     -0.437063
    148 C50        -3.1990   -5.2470   -2.2750 c3        1 MOL      0.341028
    149 C51        -4.3640   -5.8020   -3.0540 c3        1 MOL     -0.469128
    150 C52        -3.7840   -6.2180   -4.4340 c         1 MOL      0.740868
    151 O22        -3.6790   -7.4470   -4.6960 o         1 MOL     -0.725187
    152 O23        -3.3180   -5.3490   -5.1800 o         1 MOL     -0.725187
    153 H65        -5.4490   -4.5420   -0.1960 hn        1 MOL      0.320124
    154 H66        -3.8560   -6.0630   -0.4640 h1        1 MOL      0.035464
    155 H67        -2.3560   -5.9440   -2.3030 hc        1 MOL      0.008460
    156 H68        -2.8030   -4.3280   -2.6920 hc        1 MOL      0.008460
    157 H69        -5.1720   -5.0770   -3.1460 hc        1 MOL      0.038109
    158 H70        -4.8440   -6.6100   -2.4980 hc        1 MOL      0.038109
    159 N14        -2.1710   -4.1690    1.0710 n         1 MOL     -0.137978
    160 C53        -1.0220   -4.0000    1.9770 c3        1 MOL     -0.158089
    161 C54        -1.3070   -4.6300    3.3630 c         1 MOL      0.485010
    162 O24        -0.3290   -4.7280    4.1160 o         1 MOL     -0.534689
    163 C55        -0.5760   -2.5430    2.2240 c3        1 MOL      0.059094
    164 C56        -0.2970   -1.6520    1.0560 c3        1 MOL     -0.136914
    165 C57         0.6980   -2.2610    0.0350 c         1 MOL      0.904076
    166 O25         1.8900   -2.4750    0.3300 o         1 MOL     -0.702093
    167 O26         0.2630   -2.4570   -1.1140 o         1 MOL     -0.702093
    168 H71        -3.0670   -3.7880    1.3320 hn        1 MOL      0.205894
    169 H72        -0.2200   -4.6270    1.5800 h1        1 MOL      0.146201
    170 H73         0.3670   -2.6030    2.7770 hc        1 MOL      0.002752
    171 H74        -1.3050   -2.0390    2.8580 hc        1 MOL      0.002752
    172 H75         0.0870   -0.6930    1.3830 hc        1 MOL     -0.040225
    173 H76        -1.2740   -1.5250    0.5730 hc        1 MOL     -0.040225
    174 N15        -2.5370   -4.9390    3.7200 n         1 MOL     -0.263077
    175 C58        -2.8840   -5.6330    4.9670 c3        1 MOL     -0.176135
    176 H77        -3.9070   -5.3820    5.2490 h1        1 MOL      0.085514
    177 H78        -2.8010   -6.7100    4.8180 h1        1 MOL      0.085514
    178 H79        -2.2020   -5.3220    5.7580 h1        1 MOL      0.085514
    179 H80        -3.2850   -4.8360    3.0490 hn        1 MOL      0.213294
    180 Ca1         4.3790   -2.2720   -0.7510 Ca        1 MOL      1.753608
    181 O27         5.8640   -1.1560   -2.6540 oh        1 MOL     -0.919888
    182 H81         6.6530   -0.6170   -2.6230 ho        1 MOL      0.435695
    183 H82         5.5760   -1.1180   -3.5710 ho        1 MOL      0.435695
    184 O28         3.8690   -4.7710   -0.3560 oh        1 MOL     -0.919888
    185 H83         3.0300   -5.1980   -0.1740 ho        1 MOL      0.435695
    186 H84         4.5240   -5.3440    0.0430 ho        1 MOL      0.435695
    187 O29         2.5680   -2.9020   -2.5380 oh        1 MOL     -0.919888
    188 H85         1.7470   -2.7390   -2.0700 ho        1 MOL      0.435695
    189 H86         2.5140   -2.3270   -3.3030 ho        1 MOL      0.435695
@<TRIPOS>BOND
     1    1    2 1   
     2    1    4 1   
     3    1    5 1   
     4    1    6 1   
     5    2    3 2   
     6    2    7 1   
     7    7    8 1   
     8    7   15 1   
     9    8    9 1   
    10    8   11 1   
    11    8   16 1   
    12    9   10 2   
    13    9   19 1   
    14   11   12 1   
    15   11   17 1   
    16   11   18 1   
    17   12   13 1   
    18   12   14 1   
    19   19   20 1   
    20   19   27 1   
    21   20   21 1   
    22   20   23 1   
    23   20   28 1   
    24   21   22 2   
    25   21   38 1   
    26   23   24 1   
    27   23   25 1   
    28   23   29 1   
    29   24   26 1   
    30   24   30 1   
    31   24   31 1   
    32   25   32 1   
    33   25   33 1   
    34   25   34 1   
    35   26   35 1   
    36   26   36 1   
    37   26   37 1   
    38   38   39 1   
    39   38   46 1   
    40   39   40 1   
    41   39   42 1   
    42   39   47 1   
    43   40   41 2   
    44   40   50 1   
    45   42   43 1   
    46   42   48 1   
    47   42   49 1   
    48   43   44 1   
    49   43   45 1   
    50   50   51 1   
    51   50   54 1   
    52   51   52 1   
    53   51   55 1   
    54   51   56 1   
    55   52   53 2   
    56   52   57 1   
    57   57   58 1   
    58   57   65 1   
    59   58   59 1   
    60   58   61 1   
    61   58   66 1   
    62   59   60 2   
    63   59   69 1   
    64   61   62 1   
    65   61   67 1   
    66   61   68 1   
    67   62   63 1   
    68   62   64 1   
    69   69   70 1   
    70   69   73 1   
    71   70   71 1   
    72   70   74 1   
    73   70   75 1   
    74   71   72 2   
    75   71   76 1   
    76   76   77 1   
    77   76   85 1   
    78   77   78 1   
    79   77   80 1   
    80   77   86 1   
    81   78   79 2   
    82   78   93 1   
    83   80   81 1   
    84   80   87 1   
    85   80   88 1   
    86   81   82 1   
    87   81   89 1   
    88   81   90 1   
    89   82   83 1   
    90   82   84 2   
    91   83   91 1   
    92   83   92 1   
    93   93   94 1   
    94   93  100 1   
    95   94   95 1   
    96   94   97 1   
    97   94  101 1   
    98   95   96 2   
    99   95  109 1   
   100   97   98 1   
   101   97   99 1   
   102   97  102 1   
   103   98  103 1   
   104   98  104 1   
   105   98  105 1   
   106   99  106 1   
   107   99  107 1   
   108   99  108 1   
   109  109  110 1   
   110  109  117 1   
   111  110  111 1   
   112  110  113 1   
   113  110  118 1   
   114  111  112 2   
   115  111  123 1   
   116  113  114 1   
   117  113  119 1   
   118  113  120 1   
   119  114  115 1   
   120  114  116 2   
   121  115  121 1   
   122  115  122 1   
   123  123  124 1   
   124  123  135 1   
   125  124  125 1   
   126  124  127 1   
   127  124  136 1   
   128  125  126 2   
   129  125  144 1   
   130  127  128 1   
   131  127  137 1   
   132  127  138 1   
   133  128  129 ar  
   134  128  130 ar  
   135  129  131 ar  
   136  129  139 1   
   137  130  132 ar  
   138  130  140 1   
   139  131  133 ar  
   140  131  141 1   
   141  132  133 ar  
   142  132  142 1   
   143  133  134 1   
   144  134  143 1   
   145  144  145 1   
   146  144  153 1   
   147  145  146 1   
   148  145  148 1   
   149  145  154 1   
   150  146  147 2   
   151  146  159 1   
   152  148  149 1   
   153  148  155 1   
   154  148  156 1   
   155  149  150 1   
   156  149  157 1   
   157  149  158 1   
   158  150  151 1   
   159  150  152 1   
   160  159  160 1   
   161  159  168 1   
   162  160  161 1   
   163  160  163 1   
   164  160  169 1   
   165  161  162 2   
   166  161  174 1   
   167  163  164 1   
   168  163  170 1   
   169  163  171 1   
   170  164  165 1   
   171  164  172 1   
   172  164  173 1   
   173  165  166 1   
   174  165  167 1   
   175  174  175 1   
   176  174  179 1   
   177  175  176 1   
   178  175  177 1   
   179  175  178 1   
   180  181  182 1   
   181  181  183 1   
   182  184  185 1   
   183  184  186 1   
   184  187  188 1   
   185  187  189 1   
@<TRIPOS>SUBSTRUCTURE
     1 MOL         1 TEMP              0 ****  ****    0 ROOT
