@<TRIPOS>MOLECULE
MOL
  181   177     1     0     0
SMALL
resp


@<TRIPOS>ATOM
      1 C1          9.4030    7.1420   -1.2320 c3        1 MOL     -0.332330
      2 C2          8.6450    5.9420   -0.6830 c         1 MOL      0.703342
      3 O1          7.5990    6.0770    0.0090 o         1 MOL     -0.583772
      4 H1          9.6240    6.9800   -2.2870 hc        1 MOL      0.077374
      5 H2          8.7930    8.0380   -1.1220 hc        1 MOL      0.077374
      6 H3         10.3350    7.2670   -0.6810 hc        1 MOL      0.077374
      7 N1          9.0940    4.6940   -0.7970 n         1 MOL     -0.687805
      8 C3         10.0260    4.1310   -1.8310 c3        1 MOL      0.411449
      9 C4         11.0740    3.2230   -1.1430 c         1 MOL      0.336325
     10 O2         11.7570    2.4530   -1.8500 o         1 MOL     -0.507611
     11 C5          9.2490    3.3410   -2.9770 c3        1 MOL     -0.411127
     12 C6          8.0980    2.3980   -2.5440 c         1 MOL      0.897687
     13 O3          7.3950    2.6390   -1.5650 o         1 MOL     -0.796131
     14 O4          7.8740    1.3560   -3.2150 o         1 MOL     -0.796131
     15 H4          8.4010    4.0560   -0.4250 hn        1 MOL      0.420518
     16 H5         10.6600    4.7950   -2.4230 h1        1 MOL      0.012610
     17 H6         10.0270    2.7930   -3.5130 hc        1 MOL      0.080653
     18 H7          8.7850    4.1620   -3.5340 hc        1 MOL      0.080653
     19 N2         11.3740    3.3910    0.1370 n         1 MOL     -0.468186
     20 C7         12.3160    2.6340    0.9020 c3        1 MOL      0.408443
     21 C8         11.7040    1.1830    1.1940 c         1 MOL      0.295163
     22 O5         12.3570    0.3290    1.7810 o         1 MOL     -0.534423
     23 C9         12.6360    3.3630    2.2090 c3        1 MOL     -0.404017
     24 H8         10.7630    3.9380    0.7150 hn        1 MOL      0.246967
     25 H9         13.2030    2.4660    0.2930 h1        1 MOL      0.014925
     26 H10        13.2970    2.6950    2.7660 hc        1 MOL      0.107971
     27 H11        13.1860    4.1930    1.7600 hc        1 MOL      0.107971
     28 H12        11.7310    3.6950    2.7230 hc        1 MOL      0.107971
     29 N3         10.4190    0.9130    0.8710 n         1 MOL     -0.098628
     30 C10         9.7610   -0.3680    1.2290 c3        1 MOL      0.039401
     31 C11         9.1170   -1.2550    0.1190 c         1 MOL      0.495902
     32 O6          8.7870   -0.7240   -0.9390 o         1 MOL     -0.596919
     33 C12         8.6910   -0.1580    2.2980 c3        1 MOL     -0.216622
     34 C13         7.5370    0.7890    1.8500 c         1 MOL      0.653199
     35 O7          6.7820    0.2960    0.9620 o         1 MOL     -0.647013
     36 O8          7.3360    1.8980    2.3760 o         1 MOL     -0.647013
     37 H13         9.8340    1.5910    0.4100 hn        1 MOL      0.113544
     38 H14        10.4610   -1.0090    1.7730 h1        1 MOL      0.054674
     39 H15         9.1290    0.2820    3.2030 hc        1 MOL      0.050669
     40 H16         8.2930   -1.1280    2.5820 hc        1 MOL      0.050669
     41 N4          8.8540   -2.5410    0.3670 n         1 MOL     -0.406712
     42 C14         8.3010   -3.5350   -0.5460 c3        1 MOL     -0.048902
     43 C15         6.8510   -3.3280   -0.9090 c         1 MOL      0.778901
     44 O9          6.3170   -2.3020   -0.6380 o         1 MOL     -0.617910
     45 H17         9.2020   -2.8710    1.2520 hn        1 MOL      0.292650
     46 H18         8.4750   -4.4850   -0.0470 h1        1 MOL      0.060169
     47 H19         8.7910   -3.6090   -1.5230 h1        1 MOL      0.060169
     48 N5          6.2500   -4.3950   -1.4150 n         1 MOL     -0.674823
     49 C16         4.8330   -4.5080   -1.8070 c3        1 MOL      0.360042
     50 C17         3.8510   -4.4900   -0.5950 c         1 MOL      0.576072
     51 O10         4.2550   -4.9530    0.4530 o         1 MOL     -0.523776
     52 C18         4.6440   -5.7570   -2.6570 c3        1 MOL     -0.465688
     53 C19         3.1300   -6.0710   -2.9780 c         1 MOL      0.640158
     54 N6          2.4420   -5.0820   -3.5520 n         1 MOL     -0.807947
     55 O11         2.6860   -7.1650   -2.5760 o         1 MOL     -0.511263
     56 H20         6.8640   -5.1790   -1.6160 hn        1 MOL      0.312849
     57 H21         4.5030   -3.7400   -2.5010 h1        1 MOL     -0.125637
     58 H22         5.1080   -6.5400   -2.0660 hc        1 MOL      0.135161
     59 H23         5.1300   -5.7110   -3.6330 hc        1 MOL      0.135161
     60 H24         2.9340   -4.2140   -3.7230 hn        1 MOL      0.390439
     61 H25         1.5100   -5.3040   -3.8950 hn        1 MOL      0.390439
     62 N7          2.6760   -3.8570   -0.6610 n         1 MOL     -0.339575
     63 C20         1.6560   -3.7060    0.3620 c3        1 MOL     -0.069251
     64 C21         1.7970   -2.4190    1.2060 c         1 MOL      0.672796
     65 O12         2.6870   -1.5930    0.9650 o         1 MOL     -0.579433
     66 H26         2.4120   -3.4860   -1.5640 hn        1 MOL      0.193922
     67 H27         1.6070   -4.5130    1.0820 h1        1 MOL      0.104121
     68 H28         0.6820   -3.6450   -0.1230 h1        1 MOL      0.104121
     69 N8          0.9940   -2.2270    2.2460 n         1 MOL     -0.658054
     70 C22         0.0180   -3.0970    2.9120 c3        1 MOL      0.042929
     71 C23        -1.3970   -2.5010    3.1140 c         1 MOL      0.662457
     72 O13        -2.2610   -3.3420    3.3270 o         1 MOL     -0.606046
     73 C24         0.5910   -3.3280    4.2860 c3        1 MOL      0.307832
     74 C25         1.9520   -3.9900    4.3320 c3        1 MOL     -0.548903
     75 O14         0.7830   -2.0830    4.9360 oh        1 MOL     -0.598730
     76 H29         1.2340   -1.3760    2.7350 hn        1 MOL      0.385385
     77 H30        -0.1790   -4.0270    2.3810 h1        1 MOL      0.087866
     78 H31        -0.1310   -3.9510    4.8040 h1        1 MOL      0.004709
     79 H32         1.0330   -2.3660    5.8210 ho        1 MOL      0.405222
     80 H33         2.5920   -3.3920    3.6840 hc        1 MOL      0.146823
     81 H34         2.2960   -4.0220    5.3640 hc        1 MOL      0.146823
     82 H35         1.9110   -5.0150    3.9550 hc        1 MOL      0.146823
     83 N9         -1.6140   -1.2220    2.9700 n         1 MOL     -0.497240
     84 C26        -2.8980   -0.6250    2.9660 c3        1 MOL     -0.004133
     85 C27        -3.0990   -0.1990    1.5270 c         1 MOL      0.701189
     86 O15        -2.2970    0.5500    1.0290 o         1 MOL     -0.633854
     87 C28        -2.9590    0.5300    3.9210 c3        1 MOL      0.088079
     88 C29        -3.0610   -0.0210    5.4240 c3        1 MOL      0.393090
     89 C30        -4.1640    1.5240    3.6310 c3        1 MOL     -0.527968
     90 C31        -2.8450    1.0380    6.4190 c3        1 MOL     -0.505495
     91 H36        -0.8570   -0.6390    2.6660 hn        1 MOL      0.265173
     92 H37        -3.7130   -1.2680    3.2990 h1        1 MOL      0.052334
     93 H38        -2.0230    1.0780    3.8560 hc        1 MOL      0.030203
     94 H39        -2.2280   -0.7030    5.5890 hc        1 MOL     -0.067381
     95 H40        -3.9770   -0.5840    5.6240 hc        1 MOL     -0.067381
     96 H41        -3.8770    2.1310    2.7780 hc        1 MOL      0.166912
     97 H42        -5.0910    0.9520    3.5180 hc        1 MOL      0.166912
     98 H43        -4.4070    2.1830    4.4590 hc        1 MOL      0.166912
     99 H44        -3.8300    1.3200    6.7900 hc        1 MOL      0.098031
    100 H45        -2.3010    0.6630    7.2820 hc        1 MOL      0.098031
    101 H46        -2.2130    1.8380    6.0380 hc        1 MOL      0.098031
    102 N10        -4.2040   -0.3800    0.8610 n         1 MOL     -0.584817
    103 C32        -5.4650   -1.0660    1.1140 c3        1 MOL      0.310947
    104 C33        -6.5960   -0.5700    0.1190 c         1 MOL      0.461817
    105 O16        -6.2420    0.2000   -0.8300 o         1 MOL     -0.504511
    106 C34        -5.3180   -2.5390    0.9830 c3        1 MOL     -0.182420
    107 C35        -4.8520   -3.1680   -0.2990 c         1 MOL      0.750377
    108 O17        -4.9280   -4.4100   -0.3860 o         1 MOL     -0.738726
    109 O18        -4.3390   -2.4970   -1.2340 o         1 MOL     -0.738726
    110 H47        -4.0790   -0.2120   -0.1280 hn        1 MOL      0.317527
    111 H48        -5.7400   -0.8670    2.1470 h1        1 MOL     -0.021568
    112 H49        -6.3330   -2.8370    1.2570 hc        1 MOL     -0.002502
    113 H50        -4.6190   -2.8350    1.7670 hc        1 MOL     -0.002502
    114 N11        -7.8540   -0.9060    0.3970 n         1 MOL     -0.536978
    115 C36        -8.9890   -0.7270   -0.4930 c3        1 MOL      0.419149
    116 C37       -10.2710   -0.2130    0.1930 c         1 MOL      0.189688
    117 O19       -10.6800   -0.7150    1.2630 o         1 MOL     -0.517976
    118 C38        -9.3080   -2.0660   -1.2110 c3        1 MOL     -0.080750
    119 C39       -10.4460   -2.1730   -2.1380 ca        1 MOL      0.070951
    120 C40       -11.8030   -2.2040   -1.6920 ca        1 MOL     -0.140966
    121 C41       -10.2090   -2.0550   -3.4770 ca        1 MOL     -0.140966
    122 C42       -12.8910   -2.1050   -2.5750 ca        1 MOL     -0.112480
    123 C43       -11.2680   -2.0080   -4.4080 ca        1 MOL     -0.112480
    124 C44       -12.5840   -1.9870   -3.9490 ca        1 MOL     -0.166222
    125 H51        -7.9800   -1.4700    1.2240 hn        1 MOL      0.322872
    126 H52        -8.6810    0.0510   -1.1950 h1        1 MOL     -0.030810
    127 H53        -9.5250   -2.8630   -0.4890 hc        1 MOL      0.030480
    128 H54        -8.3810   -2.4250   -1.6550 hc        1 MOL      0.030480
    129 H55       -11.9250   -2.3710   -0.6310 ha        1 MOL      0.117170
    130 H56        -9.1750   -2.1270   -3.7810 ha        1 MOL      0.117170
    131 H57       -13.8840   -2.2370   -2.1720 ha        1 MOL      0.107968
    132 H58       -11.0400   -1.8450   -5.4470 ha        1 MOL      0.107968
    133 H59       -13.3530   -1.7630   -4.6710 ha        1 MOL      0.102344
    134 N12       -11.1070    0.6680   -0.3830 n         1 MOL      0.142196
    135 C45       -10.9240    1.2560   -1.7490 c3        1 MOL      0.128386
    136 C46        -9.8200    2.2990   -1.7790 c         1 MOL      0.514374
    137 O20        -9.1140    2.2980   -2.7990 o         1 MOL     -0.549501
    138 C47       -12.3060    1.8480   -2.1740 c3        1 MOL     -0.198069
    139 C48       -12.9510    2.2230   -0.8680 c3        1 MOL      0.046798
    140 C49       -12.3660    1.1780    0.1500 c3        1 MOL     -0.207546
    141 H60       -10.6060    0.5020   -2.4660 h1        1 MOL     -0.001279
    142 H61       -12.1930    2.7040   -2.8420 hc        1 MOL      0.063343
    143 H62       -12.9090    1.0880   -2.6650 hc        1 MOL      0.063343
    144 H63       -12.6020    3.1850   -0.5060 hc        1 MOL      0.015270
    145 H64       -14.0410    2.2380   -0.8830 hc        1 MOL      0.015270
    146 H65       -12.2110    1.6290    1.1260 h1        1 MOL      0.076348
    147 H66       -13.0190    0.3040    0.1900 h1        1 MOL      0.076348
    148 N13        -9.6110    3.2090   -0.7190 n         1 MOL     -0.652736
    149 C50        -8.3400    3.9800   -0.5330 c3        1 MOL      0.572675
    150 C51        -8.3180    5.4020   -1.1290 c         1 MOL      0.206036
    151 O21        -8.8870    6.3550   -0.4900 o         1 MOL     -0.539474
    152 C52        -8.0200    4.1040    0.9660 c3        1 MOL     -0.161374
    153 C53        -7.7920    2.7310    1.7610 c3        1 MOL     -0.192371
    154 C54        -7.8950    3.0300    3.2900 c         1 MOL      0.673220
    155 O22        -8.7980    2.4460    3.9590 o         1 MOL     -0.693308
    156 O23        -6.9510    3.5790    3.9220 o         1 MOL     -0.693308
    157 H67       -10.1880    3.1150    0.0950 hn        1 MOL      0.342919
    158 H68        -7.5160    3.3930   -0.9470 h1        1 MOL      0.005198
    159 H69        -8.8320    4.6730    1.4290 hc        1 MOL      0.037505
    160 H70        -7.0700    4.6230    1.0750 hc        1 MOL      0.037505
    161 H71        -6.8490    2.2880    1.4290 hc        1 MOL      0.010172
    162 H72        -8.6230    2.0520    1.5480 hc        1 MOL      0.010172
    163 N14        -7.7690    5.5720   -2.3090 n         1 MOL     -0.220698
    164 C55        -6.8770    4.7230   -3.1490 c3        1 MOL     -0.238547
    165 H73        -6.4300    5.3320   -3.9350 h1        1 MOL      0.108464
    166 H74        -6.0890    4.2970   -2.5280 h1        1 MOL      0.108464
    167 H75        -7.4590    3.9190   -3.6000 h1        1 MOL      0.108464
    168 H76        -7.9270    6.4940   -2.6940 hn        1 MOL      0.243316
    169 Ca1         6.2580    0.0230   -1.6530 Ca        1 MOL      1.810414
    170 O24         4.6530    1.7970   -3.5150 oh        1 MOL     -0.848062
    171 H77         3.7520    2.1280   -3.4880 ho        1 MOL      0.413102
    172 H78         4.9630    2.0240   -4.3910 ho        1 MOL      0.413102
    173 O25         6.4480   -1.3760   -3.9640 oh        1 MOL     -0.848062
    174 H79         5.9830   -1.1960   -4.7830 ho        1 MOL      0.413102
    175 H80         6.9350   -2.1740   -4.1440 ho        1 MOL      0.413102
    176 O26         4.4460    1.5410   -0.3860 oh        1 MOL     -0.848062
    177 H81         3.6700    1.9500   -0.7530 ho        1 MOL      0.413102
    178 H82         4.7140    2.1190    0.3280 ho        1 MOL      0.413102
    179 O27         3.7240   -1.0220   -1.7190 oh        1 MOL     -0.848062
    180 H83         3.3410   -0.9300   -0.8470 ho        1 MOL      0.413102
    181 H84         3.0040   -1.3560   -2.2530 ho        1 MOL      0.413102
@<TRIPOS>BOND
     1    1    2 1   
     2    1    4 1   
     3    1    5 1   
     4    1    6 1   
     5    2    3 2   
     6    2    7 1   
     7    7    8 1   
     8    7   15 1   
     9    8    9 1   
    10    8   11 1   
    11    8   16 1   
    12    9   10 2   
    13    9   19 1   
    14   11   12 1   
    15   11   17 1   
    16   11   18 1   
    17   12   13 1   
    18   12   14 1   
    19   19   20 1   
    20   19   24 1   
    21   20   21 1   
    22   20   23 1   
    23   20   25 1   
    24   21   22 2   
    25   21   29 1   
    26   23   26 1   
    27   23   27 1   
    28   23   28 1   
    29   29   30 1   
    30   29   37 1   
    31   30   31 1   
    32   30   33 1   
    33   30   38 1   
    34   31   32 2   
    35   31   41 1   
    36   33   34 1   
    37   33   39 1   
    38   33   40 1   
    39   34   35 1   
    40   34   36 1   
    41   41   42 1   
    42   41   45 1   
    43   42   43 1   
    44   42   46 1   
    45   42   47 1   
    46   43   44 2   
    47   43   48 1   
    48   48   49 1   
    49   48   56 1   
    50   49   50 1   
    51   49   52 1   
    52   49   57 1   
    53   50   51 2   
    54   50   62 1   
    55   52   53 1   
    56   52   58 1   
    57   52   59 1   
    58   53   54 1   
    59   53   55 2   
    60   54   60 1   
    61   54   61 1   
    62   62   63 1   
    63   62   66 1   
    64   63   64 1   
    65   63   67 1   
    66   63   68 1   
    67   64   65 2   
    68   64   69 1   
    69   69   70 1   
    70   69   76 1   
    71   70   71 1   
    72   70   73 1   
    73   70   77 1   
    74   71   72 2   
    75   71   83 1   
    76   73   74 1   
    77   73   75 1   
    78   73   78 1   
    79   74   80 1   
    80   74   81 1   
    81   74   82 1   
    82   75   79 1   
    83   83   84 1   
    84   83   91 1   
    85   84   85 1   
    86   84   87 1   
    87   84   92 1   
    88   85   86 2   
    89   85  102 1   
    90   87   88 1   
    91   87   89 1   
    92   87   93 1   
    93   88   90 1   
    94   88   94 1   
    95   88   95 1   
    96   89   96 1   
    97   89   97 1   
    98   89   98 1   
    99   90   99 1   
   100   90  100 1   
   101   90  101 1   
   102  102  103 1   
   103  102  110 1   
   104  103  104 1   
   105  103  106 1   
   106  103  111 1   
   107  104  105 2   
   108  104  114 1   
   109  106  107 1   
   110  106  112 1   
   111  106  113 1   
   112  107  108 1   
   113  107  109 1   
   114  114  115 1   
   115  114  125 1   
   116  115  116 1   
   117  115  118 1   
   118  115  126 1   
   119  116  117 2   
   120  116  134 1   
   121  118  119 1   
   122  118  127 1   
   123  118  128 1   
   124  119  120 ar  
   125  119  121 ar  
   126  120  122 ar  
   127  120  129 1   
   128  121  123 ar  
   129  121  130 1   
   130  122  124 ar  
   131  122  131 1   
   132  123  124 ar  
   133  123  132 1   
   134  124  133 1   
   135  134  135 1   
   136  134  140 1   
   137  135  136 1   
   138  135  138 1   
   139  135  141 1   
   140  136  137 2   
   141  136  148 1   
   142  138  139 1   
   143  138  142 1   
   144  138  143 1   
   145  139  140 1   
   146  139  144 1   
   147  139  145 1   
   148  140  146 1   
   149  140  147 1   
   150  148  149 1   
   151  148  157 1   
   152  149  150 1   
   153  149  152 1   
   154  149  158 1   
   155  150  151 2   
   156  150  163 1   
   157  152  153 1   
   158  152  159 1   
   159  152  160 1   
   160  153  154 1   
   161  153  161 1   
   162  153  162 1   
   163  154  155 1   
   164  154  156 1   
   165  163  164 1   
   166  163  168 1   
   167  164  165 1   
   168  164  166 1   
   169  164  167 1   
   170  170  171 1   
   171  170  172 1   
   172  173  174 1   
   173  173  175 1   
   174  176  177 1   
   175  176  178 1   
   176  179  180 1   
   177  179  181 1   
@<TRIPOS>SUBSTRUCTURE
     1 MOL         1 TEMP              0 ****  ****    0 ROOT
