@<TRIPOS>MOLECULE
MOL
  195   189     1     0     0
SMALL
resp


@<TRIPOS>ATOM
      1 C1         -7.1060   -2.0960    5.0480 c3        1 MOL     -0.253941
      2 C2         -6.3390   -1.6140    3.7960 c         1 MOL      0.819513
      3 O1         -5.8990   -2.4300    2.9610 o         1 MOL     -0.658560
      4 H1         -7.4500   -3.1170    4.8920 hc        1 MOL      0.061797
      5 H2         -6.4460   -2.0640    5.9140 hc        1 MOL      0.061797
      6 H3         -7.9650   -1.4460    5.2210 hc        1 MOL      0.061797
      7 N1         -6.0420   -0.3370    3.6370 n         1 MOL     -0.702614
      8 C3         -5.4550    0.2440    2.3930 c3        1 MOL      0.483128
      9 C4         -3.9450   -0.0310    2.2150 c         1 MOL      0.014043
     10 O2         -3.3770    0.3920    1.1970 o         1 MOL     -0.237100
     11 C5         -5.7120    1.8010    2.2970 c3        1 MOL     -0.127192
     12 C6         -7.1120    2.1760    2.6710 c         1 MOL      0.723870
     13 O3         -7.8110    2.5630    1.7620 o         1 MOL     -0.717706
     14 O4         -7.4160    2.1960    3.9100 o         1 MOL     -0.717706
     15 H4         -6.3700    0.3200    4.3350 hn        1 MOL      0.275529
     16 H5         -6.0210   -0.1330    1.5350 h1        1 MOL      0.017542
     17 H6         -5.5750    2.0110    1.2380 hc        1 MOL     -0.017818
     18 H7         -4.9830    2.2960    2.9380 hc        1 MOL     -0.017818
     19 N2         -3.1710   -0.6810    3.0850 n         1 MOL     -0.122446
     20 C7         -1.7420   -0.6560    3.0070 c3        1 MOL      0.085755
     21 C8         -1.1300   -2.0920    2.5650 c         1 MOL      0.381420
     22 O5         -1.7750   -3.0670    2.9690 o         1 MOL     -0.473606
     23 C9         -1.0730   -0.1270    4.2600 c3        1 MOL     -0.289764
     24 C10        -1.2680    1.3990    4.4550 c3        1 MOL      0.234692
     25 C11        -0.3250    1.9900    5.4580 c3        1 MOL     -0.209333
     26 C12        -0.4110    3.4780    5.6930 c3        1 MOL      0.052349
     27 N3          0.0980    4.2380    4.5520 n4        1 MOL     -0.388236
     28 H8         -3.6530   -1.2330    3.7900 hn        1 MOL      0.224739
     29 H9         -1.4170   -0.0510    2.1590 h1        1 MOL      0.070732
     30 H10        -0.0000   -0.2580    4.1950 hc        1 MOL      0.094748
     31 H11        -1.4540   -0.7260    5.0960 hc        1 MOL      0.094748
     32 H12        -2.3220    1.5150    4.7280 hc        1 MOL     -0.025405
     33 H13        -1.1600    1.9670    3.5250 hc        1 MOL     -0.025405
     34 H14         0.6580    1.6740    5.1040 hc        1 MOL      0.072899
     35 H15        -0.5010    1.4220    6.3680 hc        1 MOL      0.072899
     36 H16         0.0690    3.7620    6.6350 hx        1 MOL      0.089666
     37 H17        -1.4510    3.7180    5.8950 hx        1 MOL      0.089666
     38 H18         0.2440    5.2140    4.7860 hn        1 MOL      0.334072
     39 H19         1.0110    3.8680    4.3120 hn        1 MOL      0.334072
     40 H20        -0.2900    4.0750    3.6400 hn        1 MOL      0.334072
     41 N4         -0.0540   -2.3120    1.7640 n         1 MOL     -0.274080
     42 C13         0.8750   -1.3850    1.1400 c3        1 MOL     -0.024368
     43 C14         1.4630   -0.2120    1.9880 c         1 MOL      0.396627
     44 O6          0.8690    0.8670    2.0070 o         1 MOL     -0.538774
     45 C15         0.2840   -0.8860   -0.1590 c3        1 MOL     -0.521732
     46 C16         0.0760   -1.8710   -1.3380 c         1 MOL      0.466465
     47 O7          0.7480   -2.9100   -1.5590 o         1 MOL     -0.616733
     48 O8         -0.6900   -1.4410   -2.2080 o         1 MOL     -0.616733
     49 H21         0.0740   -3.3020    1.5960 hn        1 MOL      0.207012
     50 H22         1.6900   -2.0610    0.9150 h1        1 MOL     -0.017361
     51 H23         0.9580   -0.1320   -0.5700 hc        1 MOL      0.239954
     52 H24        -0.6330   -0.4250    0.1890 hc        1 MOL      0.239954
     53 N5          2.6030   -0.3360    2.5460 n         1 MOL     -0.197976
     54 C17         3.4760   -1.5380    2.6150 c3        1 MOL     -0.111230
     55 C18         4.7030   -1.3000    3.4760 c         1 MOL      0.528740
     56 O9          4.8070   -0.2830    4.1980 o         1 MOL     -0.529640
     57 H25         2.9260    0.3810    3.1850 hn        1 MOL      0.229372
     58 H26         3.7260   -1.8900    1.6120 h1        1 MOL      0.100635
     59 H27         2.8830   -2.3620    3.0160 h1        1 MOL      0.100635
     60 N6          5.6630   -2.2100    3.5140 n         1 MOL     -0.547268
     61 C19         5.8470   -3.3030    2.5420 c3        1 MOL      0.310799
     62 C20         6.4940   -2.8160    1.1180 c         1 MOL      0.477584
     63 O10         7.0900   -1.7640    1.0520 o         1 MOL     -0.416469
     64 C21         6.7510   -4.3870    3.1400 c3        1 MOL     -0.284002
     65 C22         8.0830   -3.8350    3.7490 c         1 MOL      0.660841
     66 O11         9.2030   -4.2200    3.2590 o         1 MOL     -0.627380
     67 O12         8.1310   -2.9210    4.5870 o         1 MOL     -0.627380
     68 H28         6.4570   -2.0510    4.1170 hn        1 MOL      0.334261
     69 H29         4.9180   -3.8240    2.3550 h1        1 MOL     -0.040720
     70 H30         6.9970   -5.0430    2.3000 hc        1 MOL      0.038473
     71 H31         6.1280   -4.9640    3.8220 hc        1 MOL      0.038473
     72 N7          6.1780   -3.5820    0.0470 n         1 MOL     -0.348738
     73 C23         6.7290   -3.2250   -1.3090 c3        1 MOL     -0.314854
     74 C24         6.4430   -1.8340   -1.8760 c         1 MOL      0.395001
     75 O13         7.2550   -1.3360   -2.6670 o         1 MOL     -0.525397
     76 H32         5.5420   -4.3550    0.1700 hn        1 MOL      0.201086
     77 H33         6.6060   -4.0750   -1.9790 h1        1 MOL      0.174275
     78 H34         7.8090   -3.2410   -1.1770 h1        1 MOL      0.174275
     79 N8          5.4120   -1.1210   -1.4540 n         1 MOL     -0.045687
     80 C25         5.0240    0.2100   -2.0540 c3        1 MOL     -0.122301
     81 C26         5.4110    1.3180   -1.0450 c         1 MOL      0.599352
     82 O14         5.4210    1.0620    0.1380 o         1 MOL     -0.522337
     83 C27         3.5780    0.1610   -2.4670 c3        1 MOL      0.212002
     84 C28         3.3950   -0.9180   -3.5590 c3        1 MOL     -0.137333
     85 O15         3.1990    1.3670   -3.1520 oh        1 MOL     -0.569652
     86 H35         4.7430   -1.5380   -0.8270 hn        1 MOL      0.098841
     87 H36         5.6480    0.3520   -2.9430 h1        1 MOL      0.094985
     88 H37         2.9730   -0.1590   -1.6180 h1        1 MOL      0.161480
     89 H38         2.2820    1.1800   -3.3810 ho        1 MOL      0.402831
     90 H39         2.3510   -1.0300   -3.8590 hc        1 MOL      0.030757
     91 H40         3.8930   -0.6130   -4.4870 hc        1 MOL      0.030757
     92 H41         3.5990   -1.9230   -3.1980 hc        1 MOL      0.030757
     93 N9          5.5600    2.5560   -1.5960 n         1 MOL     -0.495169
     94 C29         5.7420    3.7620   -0.7620 c3        1 MOL     -0.010429
     95 C30         4.4420    4.5250   -0.4340 c         1 MOL      0.325699
     96 O16         4.5310    5.4800    0.2590 o         1 MOL     -0.532645
     97 C31         6.7980    4.7400   -1.3600 c3        1 MOL      0.203701
     98 C32         6.1730    5.3650   -2.6080 c3        1 MOL      0.142674
     99 C33         8.1120    3.9830   -1.6730 c3        1 MOL     -0.275674
    100 C34         7.1280    6.5440   -3.1090 c3        1 MOL     -0.348386
    101 H42         5.3380    2.7160   -2.5680 hn        1 MOL      0.312529
    102 H43         6.1890    3.4480    0.1830 h1        1 MOL      0.127857
    103 H44         7.1150    5.4820   -0.6160 hc        1 MOL     -0.003442
    104 H45         5.1980    5.8160   -2.3880 hc        1 MOL     -0.018840
    105 H46         6.0280    4.5510   -3.3180 hc        1 MOL     -0.018840
    106 H47         8.8500    4.5970   -2.1960 hc        1 MOL      0.066226
    107 H48         8.4200    3.6530   -0.6790 hc        1 MOL      0.066226
    108 H49         8.0410    3.1020   -2.3150 hc        1 MOL      0.066226
    109 H50         6.6490    7.2940   -3.7410 hc        1 MOL      0.080668
    110 H51         7.4250    7.0640   -2.1960 hc        1 MOL      0.080668
    111 H52         7.9500    6.2320   -3.7390 hc        1 MOL      0.080668
    112 N10         3.3010    4.0020   -0.8560 n         1 MOL     -0.005527
    113 C35         1.9910    4.6810   -0.6950 c3        1 MOL     -0.036082
    114 C36         0.8870    3.6150   -0.5380 c         1 MOL      0.343419
    115 O17         1.1480    2.4960   -0.9920 o         1 MOL     -0.396430
    116 C37         1.6490    5.5470   -1.9400 c3        1 MOL      0.315848
    117 C38         1.8440    4.9210   -3.3180 c3        1 MOL     -0.231478
    118 O18         2.6300    6.5320   -1.9710 oh        1 MOL     -0.624021
    119 H53         3.2270    3.0820   -1.2590 hn        1 MOL      0.034475
    120 H54         2.0430    5.3840    0.1440 h1        1 MOL      0.034986
    121 H55         0.6820    6.0540   -1.8350 h1        1 MOL      0.010386
    122 H56         2.6430    7.0970   -1.1990 ho        1 MOL      0.396707
    123 H57         1.6870    5.6940   -4.0740 hc        1 MOL      0.073311
    124 H58         2.7940    4.4090   -3.4700 hc        1 MOL      0.073311
    125 H59         1.0240    4.2450   -3.5570 hc        1 MOL      0.073311
    126 N11        -0.2820    3.9690    0.0560 n         1 MOL     -0.400213
    127 C39        -1.4860    3.1110    0.2030 c3        1 MOL     -0.009517
    128 C40        -2.0670    2.6900   -1.1660 c         1 MOL      0.376786
    129 O19        -1.8890    3.3980   -2.1570 o         1 MOL     -0.513608
    130 C41        -2.5540    3.8150    1.0330 c3        1 MOL      0.239867
    131 C42        -2.8720    5.1360    0.4410 c3        1 MOL     -0.214179
    132 O20        -2.0640    4.0950    2.3220 oh        1 MOL     -0.675635
    133 H60        -0.1980    4.9090    0.3900 hn        1 MOL      0.273749
    134 H61        -1.2170    2.1960    0.7240 h1        1 MOL      0.183334
    135 H62        -3.4830    3.2630    1.1890 h1        1 MOL      0.061671
    136 H63        -2.8380    4.5140    2.7000 ho        1 MOL      0.419585
    137 H64        -3.6210    5.7150    0.9740 hc        1 MOL      0.057168
    138 H65        -1.9960    5.7700    0.3470 hc        1 MOL      0.057168
    139 H66        -3.2370    4.8670   -0.5510 hc        1 MOL      0.057168
    140 N12        -2.8220    1.6190   -1.1920 n         1 MOL     -0.034012
    141 C43        -3.7580    1.3750   -2.3220 c3        1 MOL     -0.125301
    142 C44        -4.1800   -0.0780   -2.5250 c         1 MOL      0.687672
    143 O21        -4.3900   -0.4720   -3.6850 o         1 MOL     -0.624246
    144 C45        -4.9980    2.1990   -1.9460 c3        1 MOL      0.060733
    145 C46        -6.0700    2.2980   -3.0250 c3        1 MOL     -0.214650
    146 C47        -7.2670    3.2170   -2.5690 c3        1 MOL      0.112683
    147 C48        -8.3810    3.4290   -3.6350 c3        1 MOL     -0.061049
    148 N13        -9.2370    4.5760   -3.3740 n4        1 MOL     -0.280137
    149 H67        -2.9330    1.1410   -0.3030 hn        1 MOL     -0.165712
    150 H68        -3.4110    1.7630   -3.2810 h1        1 MOL      0.107480
    151 H69        -4.7710    3.2550   -1.7910 hc        1 MOL      0.016736
    152 H70        -5.4610    1.8450   -1.0250 hc        1 MOL      0.016736
    153 H71        -6.3970    1.2880   -3.2790 hc        1 MOL      0.051941
    154 H72        -5.6640    2.7900   -3.9100 hc        1 MOL      0.051941
    155 H73        -6.9210    4.1860   -2.2000 hc        1 MOL      0.023468
    156 H74        -7.6740    2.9000   -1.6070 hc        1 MOL      0.023468
    157 H75        -9.0280    2.5770   -3.4030 hx        1 MOL      0.100893
    158 H76        -8.0070    3.4420   -4.6570 hx        1 MOL      0.100893
    159 H77        -8.7900    5.4740   -3.4150 hn        1 MOL      0.311002
    160 H78       -10.0680    4.4630   -3.9490 hn        1 MOL      0.311002
    161 H79        -9.5720    4.4520   -2.4270 hn        1 MOL      0.311002
    162 N14        -4.1910   -0.7850   -1.4750 n         1 MOL     -0.127045
    163 C49        -4.4510   -2.2050   -1.4400 c3        1 MOL     -0.535446
    164 C50        -5.9610   -2.4450   -1.2470 c         1 MOL      0.406465
    165 O22        -6.6200   -1.7630   -0.3850 o         1 MOL     -0.481957
    166 C51        -3.5100   -2.7840   -0.3590 c3        1 MOL      1.046757
    167 C52        -3.5870   -4.2340    0.0320 c3        1 MOL     -0.418439
    168 C53        -3.4270   -5.1010   -1.1810 c         1 MOL      0.674601
    169 O23        -4.5360   -5.4640   -1.7600 o         1 MOL     -0.739847
    170 O24        -2.2970   -5.4270   -1.6270 o         1 MOL     -0.739847
    171 H80        -3.8530   -0.4110   -0.5910 hn        1 MOL      0.182746
    172 H81        -4.2140   -2.5180   -2.4540 h1        1 MOL      0.153861
    173 H82        -3.6540   -2.2980    0.6040 hc        1 MOL     -0.225169
    174 H83        -2.4650   -2.5100   -0.5030 hc        1 MOL     -0.225169
    175 H84        -4.4960   -4.5080    0.5750 hc        1 MOL      0.093193
    176 H85        -2.7140   -4.4170    0.6560 hc        1 MOL      0.093193
    177 N15        -6.5720   -3.4160   -1.9180 n         1 MOL     -0.223668
    178 C54        -7.9790   -3.8280   -1.9320 c3        1 MOL     -0.207760
    179 H86        -8.5350   -3.1950   -2.6230 h1        1 MOL      0.098417
    180 H87        -8.0510   -4.8670   -2.2540 h1        1 MOL      0.098417
    181 H88        -8.3970   -3.7270   -0.9300 h1        1 MOL      0.098417
    182 H89        -5.9640   -4.0090   -2.4640 hn        1 MOL      0.332761
    183 Ca1         0.3840   -5.3640   -2.1490 Ca        1 MOL      1.554458
    184 O25         1.3570   -6.8150   -4.0100 oh        1 MOL     -0.766792
    185 H90         2.1080   -7.4110   -4.0520 ho        1 MOL      0.381430
    186 H91         0.7790   -7.1190   -4.7130 ho        1 MOL      0.381430
    187 O26         2.4070   -4.3020   -3.5450 oh        1 MOL     -0.766792
    188 H92         2.9380   -3.5120   -3.5170 ho        1 MOL      0.381430
    189 H93         2.5680   -4.6620   -4.4210 ho        1 MOL      0.381430
    190 O27        -0.9520   -3.9530   -3.9640 oh        1 MOL     -0.766792
    191 H94        -0.9440   -3.0770   -3.5750 ho        1 MOL      0.381430
    192 H95        -0.8560   -3.8040   -4.9060 ho        1 MOL      0.381430
    193 O28        -1.7310   -6.8750   -3.7530 oh        1 MOL     -0.766792
    194 H96        -2.0980   -6.2920   -3.0970 ho        1 MOL      0.381430
    195 H97        -1.6580   -7.7280   -3.3110 ho        1 MOL      0.381430
@<TRIPOS>BOND
     1    1    2 1   
     2    1    4 1   
     3    1    5 1   
     4    1    6 1   
     5    2    3 2   
     6    2    7 1   
     7    7    8 1   
     8    7   15 1   
     9    8    9 1   
    10    8   11 1   
    11    8   16 1   
    12    9   10 2   
    13    9   19 1   
    14   11   12 1   
    15   11   17 1   
    16   11   18 1   
    17   12   13 1   
    18   12   14 1   
    19   19   20 1   
    20   19   28 1   
    21   20   21 1   
    22   20   23 1   
    23   20   29 1   
    24   21   22 2   
    25   21   41 1   
    26   23   24 1   
    27   23   30 1   
    28   23   31 1   
    29   24   25 1   
    30   24   32 1   
    31   24   33 1   
    32   25   26 1   
    33   25   34 1   
    34   25   35 1   
    35   26   27 1   
    36   26   36 1   
    37   26   37 1   
    38   27   38 1   
    39   27   39 1   
    40   27   40 1   
    41   41   42 1   
    42   41   49 1   
    43   42   43 1   
    44   42   45 1   
    45   42   50 1   
    46   43   44 2   
    47   43   53 1   
    48   45   46 1   
    49   45   51 1   
    50   45   52 1   
    51   46   47 1   
    52   46   48 1   
    53   53   54 1   
    54   53   57 1   
    55   54   55 1   
    56   54   58 1   
    57   54   59 1   
    58   55   56 2   
    59   55   60 1   
    60   60   61 1   
    61   60   68 1   
    62   61   62 1   
    63   61   64 1   
    64   61   69 1   
    65   62   63 2   
    66   62   72 1   
    67   64   65 1   
    68   64   70 1   
    69   64   71 1   
    70   65   66 1   
    71   65   67 1   
    72   72   73 1   
    73   72   76 1   
    74   73   74 1   
    75   73   77 1   
    76   73   78 1   
    77   74   75 2   
    78   74   79 1   
    79   79   80 1   
    80   79   86 1   
    81   80   81 1   
    82   80   83 1   
    83   80   87 1   
    84   81   82 2   
    85   81   93 1   
    86   83   84 1   
    87   83   85 1   
    88   83   88 1   
    89   84   90 1   
    90   84   91 1   
    91   84   92 1   
    92   85   89 1   
    93   93   94 1   
    94   93  101 1   
    95   94   95 1   
    96   94   97 1   
    97   94  102 1   
    98   95   96 2   
    99   95  112 1   
   100   97   98 1   
   101   97   99 1   
   102   97  103 1   
   103   98  100 1   
   104   98  104 1   
   105   98  105 1   
   106   99  106 1   
   107   99  107 1   
   108   99  108 1   
   109  100  109 1   
   110  100  110 1   
   111  100  111 1   
   112  112  113 1   
   113  112  119 1   
   114  113  114 1   
   115  113  116 1   
   116  113  120 1   
   117  114  115 2   
   118  114  126 1   
   119  116  117 1   
   120  116  118 1   
   121  116  121 1   
   122  117  123 1   
   123  117  124 1   
   124  117  125 1   
   125  118  122 1   
   126  126  127 1   
   127  126  133 1   
   128  127  128 1   
   129  127  130 1   
   130  127  134 1   
   131  128  129 2   
   132  128  140 1   
   133  130  131 1   
   134  130  132 1   
   135  130  135 1   
   136  131  137 1   
   137  131  138 1   
   138  131  139 1   
   139  132  136 1   
   140  140  141 1   
   141  140  149 1   
   142  141  142 1   
   143  141  144 1   
   144  141  150 1   
   145  142  143 2   
   146  142  162 1   
   147  144  145 1   
   148  144  151 1   
   149  144  152 1   
   150  145  146 1   
   151  145  153 1   
   152  145  154 1   
   153  146  147 1   
   154  146  155 1   
   155  146  156 1   
   156  147  148 1   
   157  147  157 1   
   158  147  158 1   
   159  148  159 1   
   160  148  160 1   
   161  148  161 1   
   162  162  163 1   
   163  162  171 1   
   164  163  164 1   
   165  163  166 1   
   166  163  172 1   
   167  164  165 2   
   168  164  177 1   
   169  166  167 1   
   170  166  173 1   
   171  166  174 1   
   172  167  168 1   
   173  167  175 1   
   174  167  176 1   
   175  168  169 1   
   176  168  170 1   
   177  177  178 1   
   178  177  182 1   
   179  178  179 1   
   180  178  180 1   
   181  178  181 1   
   182  184  185 1   
   183  184  186 1   
   184  187  188 1   
   185  187  189 1   
   186  190  191 1   
   187  190  192 1   
   188  193  194 1   
   189  193  195 1   
@<TRIPOS>SUBSTRUCTURE
     1 MOL         1 TEMP              0 ****  ****    0 ROOT
