@<TRIPOS>MOLECULE
MOL
  187   181     1     0     0
SMALL
resp


@<TRIPOS>ATOM
      1 C1         -3.2830   -2.5570   -3.3180 c3        1 MOL     -0.349545
      2 C2         -4.7540   -2.1270   -2.8940 c         1 MOL      0.553323
      3 O1         -5.0900   -0.9460   -2.7700 o         1 MOL     -0.510235
      4 H1         -2.7790   -3.0120   -2.4660 hc        1 MOL      0.088129
      5 H2         -3.3350   -3.2760   -4.1360 hc        1 MOL      0.088129
      6 H3         -2.7260   -1.6780   -3.6420 hc        1 MOL      0.088129
      7 N1         -5.5560   -3.2070   -2.7460 n         1 MOL     -0.425203
      8 C3         -6.9400   -3.1310   -2.4000 c3        1 MOL      0.058752
      9 C4         -7.1170   -2.6670   -0.9470 c         1 MOL      0.394201
     10 O2         -6.5700   -3.2980   -0.0250 o         1 MOL     -0.504801
     11 C5         -7.4370   -4.5650   -2.5390 c3        1 MOL     -0.332159
     12 C6         -8.8260   -4.7900   -1.9620 c         1 MOL      0.685252
     13 O3         -8.9360   -5.6060   -1.0150 o         1 MOL     -0.678420
     14 O4         -9.7980   -4.1080   -2.3950 o         1 MOL     -0.678420
     15 H4         -5.2120   -4.1170   -3.0330 hn        1 MOL      0.289863
     16 H5         -7.4560   -2.4100   -3.0190 h1        1 MOL      0.053807
     17 H6         -6.6660   -5.1600   -2.0480 hc        1 MOL      0.085338
     18 H7         -7.3760   -4.8630   -3.5850 hc        1 MOL      0.085338
     19 N2         -7.9580   -1.6660   -0.7540 n         1 MOL     -0.197801
     20 C7         -8.2910   -1.0200    0.5130 c3        1 MOL      0.276053
     21 C8         -7.4110    0.1840    0.8820 c         1 MOL      0.227248
     22 O5         -7.4540    0.5620    2.0220 o         1 MOL     -0.511655
     23 C9         -9.7930   -0.5360    0.4350 c3        1 MOL     -0.265018
     24 H8         -8.3940   -1.2230   -1.5480 hn        1 MOL      0.202186
     25 H9         -8.1220   -1.7530    1.3000 h1        1 MOL      0.018229
     26 H10       -10.3870   -1.4530    0.4320 hc        1 MOL      0.075204
     27 H11       -10.0130    0.0400    1.3300 hc        1 MOL      0.075204
     28 H12        -9.9090    0.0490   -0.4760 hc        1 MOL      0.075204
     29 N3         -6.7440    0.8030   -0.0910 n         1 MOL     -0.141080
     30 C10        -6.2230    2.1930   -0.1080 c3        1 MOL      0.261156
     31 C11        -4.6520    2.2010   -0.3060 c         1 MOL      0.509433
     32 O6         -4.0420    3.0860   -0.9420 o         1 MOL     -0.569672
     33 C12        -7.0160    2.9240   -1.2230 c3        1 MOL     -0.184375
     34 C13        -8.6040    2.9970   -0.9680 c         1 MOL      0.674285
     35 O7         -9.3260    2.6420   -1.9330 o         1 MOL     -0.698111
     36 O8         -9.0040    3.4750    0.1390 o         1 MOL     -0.698111
     37 H13        -6.6660    0.3090   -0.9770 hn        1 MOL      0.096764
     38 H14        -6.4040    2.6510    0.8590 h1        1 MOL      0.002704
     39 H15        -6.7130    2.4900   -2.1740 hc        1 MOL      0.007556
     40 H16        -6.6120    3.9370   -1.2150 hc        1 MOL      0.007556
     41 N4         -4.0100    1.1990    0.3180 n         1 MOL     -0.520554
     42 C14        -2.6210    1.0820    0.6330 c3        1 MOL     -0.030533
     43 C15        -2.1770    1.8810    1.9140 c         1 MOL      0.497156
     44 O9         -2.6690    1.5910    3.0260 o         1 MOL     -0.529248
     45 H17        -4.5850    0.4370    0.6510 hn        1 MOL      0.272367
     46 H18        -2.1540    1.4900   -0.2700 h1        1 MOL      0.162102
     47 H19        -2.3570    0.0400    0.8020 h1        1 MOL      0.162102
     48 N5         -1.2690    2.8310    1.5830 n         1 MOL     -0.044199
     49 C16        -0.7190    3.8090    2.5970 c3        1 MOL     -0.020072
     50 C17        -0.3710    5.1160    1.8480 c         1 MOL      0.422939
     51 O10        -0.3530    5.0800    0.5900 o         1 MOL     -0.447300
     52 C18         0.4260    3.2360    3.4600 c3        1 MOL     -0.162296
     53 C19         0.0690    2.4000    4.7150 c         1 MOL      0.635835
     54 N6          0.2920    1.1570    4.6340 n         1 MOL     -0.746475
     55 O11        -0.3970    2.8650    5.7230 o         1 MOL     -0.592041
     56 H20        -1.1460    2.9310    0.5910 hn        1 MOL      0.053890
     57 H21        -1.5050    4.1710    3.2620 h1        1 MOL      0.053117
     58 H22         0.9110    4.1130    3.8850 hc        1 MOL      0.055030
     59 H23         1.1340    2.7390    2.8070 hc        1 MOL      0.055030
     60 H24         0.6500    0.7560    3.7780 hn        1 MOL      0.324121
     61 H25         0.1200    0.6050    5.4670 hn        1 MOL      0.324121
     62 N7         -0.0960    6.2440    2.5140 n         1 MOL     -0.285510
     63 C20         0.3140    7.5000    1.8190 c3        1 MOL     -0.339187
     64 C21         1.6610    7.3550    1.1580 c         1 MOL      0.584916
     65 O12         2.5340    6.7220    1.7840 o         1 MOL     -0.510427
     66 H26        -0.0680    6.2730    3.5290 hn        1 MOL      0.304621
     67 H27         0.3680    8.2410    2.6090 h1        1 MOL      0.146125
     68 H28        -0.4270    7.8210    1.0830 h1        1 MOL      0.146125
     69 N8          1.8950    7.7750   -0.0240 n         1 MOL     -0.371258
     70 C22         3.2260    7.5380   -0.6940 c3        1 MOL     -0.389495
     71 C23         3.3360    6.1370   -1.2380 c         1 MOL      0.511452
     72 O13         4.4330    5.6190   -1.5560 o         1 MOL     -0.567534
     73 C24         3.5470    8.4800   -1.8110 c3        1 MOL      0.577047
     74 C25         2.5730    8.3910   -2.9320 c3        1 MOL     -0.270755
     75 O14         3.3490    9.7950   -1.3110 oh        1 MOL     -0.649703
     76 H29         1.1500    8.2160   -0.5480 hn        1 MOL      0.279466
     77 H30         4.0280    7.6440    0.0420 h1        1 MOL      0.188396
     78 H31         4.5410    8.2640   -2.1860 h1        1 MOL      0.017337
     79 H32         2.4470    9.7630   -0.9720 ho        1 MOL      0.365245
     80 H33         1.5650    8.1790   -2.5730 hc        1 MOL      0.051628
     81 H34         2.6800    9.3020   -3.5100 hc        1 MOL      0.051628
     82 H35         2.8980    7.5370   -3.5270 hc        1 MOL      0.051628
     83 N9          2.2110    5.4050   -1.4460 n         1 MOL     -0.103068
     84 C26         2.2120    3.9830   -1.8850 c3        1 MOL     -0.063313
     85 C27         2.2110    2.9760   -0.6640 c         1 MOL      0.373688
     86 O15         1.8890    3.4320    0.4530 o         1 MOL     -0.397809
     87 C28         1.0070    3.6860   -2.8570 c3        1 MOL      0.229596
     88 C29        -0.4210    3.8360   -2.3610 c3        1 MOL      0.024339
     89 C30         1.2160    4.4180   -4.2260 c3        1 MOL     -0.234103
     90 C31        -1.5380    3.5710   -3.4620 c3        1 MOL     -0.075520
     91 H36         1.3640    5.8260   -1.0800 hn        1 MOL      0.160579
     92 H37         3.0560    3.7690   -2.5360 h1        1 MOL      0.059300
     93 H38         1.0890    2.6340   -3.1110 hc        1 MOL     -0.043558
     94 H39        -0.5670    4.8730   -2.0680 hc        1 MOL     -0.001849
     95 H40        -0.5840    3.0980   -1.5680 hc        1 MOL     -0.001849
     96 H41         0.7210    3.9530   -5.0760 hc        1 MOL      0.037521
     97 H42         1.0170    5.4710   -4.0150 hc        1 MOL      0.037521
     98 H43         2.2830    4.3560   -4.4150 hc        1 MOL      0.037521
     99 H44        -1.3060    2.6430   -3.9910 hc        1 MOL      0.028021
    100 H45        -2.5310    3.4150   -3.0550 hc        1 MOL      0.028021
    101 H46        -1.5580    4.3430   -4.2370 hc        1 MOL      0.028021
    102 N10         2.4880    1.7090   -0.8750 n         1 MOL     -0.365551
    103 C32         2.2950    0.6080   -0.0070 c3        1 MOL      0.091819
    104 C33         3.3120   -0.4730   -0.3820 c         1 MOL      0.470863
    105 O16         3.0850   -1.6560   -0.3240 o         1 MOL     -0.347152
    106 C34         0.8660    0.1310   -0.0140 c3        1 MOL     -0.209108
    107 C35         0.4560   -0.7990    1.1450 c         1 MOL      0.221453
    108 O17        -0.3820   -1.7180    1.0740 o         1 MOL     -0.552354
    109 O18         0.8940   -0.5520    2.2970 o         1 MOL     -0.552354
    110 H47         2.6870    1.4980   -1.8420 hn        1 MOL      0.258184
    111 H48         2.4860    0.9020    1.0250 h1        1 MOL      0.031710
    112 H49         0.6740   -0.3150   -0.9850 hc        1 MOL      0.075200
    113 H50         0.1560    0.9620    0.0660 hc        1 MOL      0.075200
    114 N11         4.5430   -0.0760   -0.7540 n         1 MOL     -0.371740
    115 C36         5.7290   -0.8880   -0.4160 c3        1 MOL     -0.009791
    116 C37         5.7270   -2.2130   -1.1530 c         1 MOL      0.678563
    117 O19         5.7660   -2.1830   -2.3560 o         1 MOL     -0.558750
    118 C38         7.0070   -0.2050   -0.7450 c3        1 MOL     -0.259197
    119 C39         8.2420   -1.0120   -0.4600 ca        1 MOL      0.208151
    120 C40         8.8130   -1.0110    0.8090 ca        1 MOL     -0.260226
    121 C41         8.6960   -1.8790   -1.4520 ca        1 MOL     -0.260226
    122 C42        10.0890   -1.6740    0.9230 ca        1 MOL     -0.063337
    123 C43         9.9240   -2.6030   -1.2490 ca        1 MOL     -0.063337
    124 C44        10.6010   -2.4450   -0.1050 ca        1 MOL     -0.150769
    125 H51         4.5640    0.8850   -1.0690 hn        1 MOL      0.234468
    126 H52         5.6230   -1.0490    0.6590 h1        1 MOL      0.063777
    127 H53         7.0410    0.7480   -0.2140 hc        1 MOL      0.103836
    128 H54         7.1130    0.0150   -1.8050 hc        1 MOL      0.103836
    129 H55         8.5050   -0.2190    1.4870 ha        1 MOL      0.135250
    130 H56         8.1850   -1.9940   -2.3990 ha        1 MOL      0.135250
    131 H57        10.6430   -1.5480    1.8410 ha        1 MOL      0.095159
    132 H58        10.3660   -3.2550   -1.9870 ha        1 MOL      0.095159
    133 H59        11.4170   -3.1190    0.0760 ha        1 MOL      0.104385
    134 N12         5.7140   -3.3720   -0.4730 n         1 MOL     -0.029084
    135 C45         5.7600   -4.6610   -1.0700 c3        1 MOL     -0.104464
    136 C46         4.5360   -5.0770   -1.8870 c         1 MOL      0.299994
    137 O20         4.5300   -5.9880   -2.7230 o         1 MOL     -0.503813
    138 C47         6.0010   -5.7020    0.0480 c3        1 MOL     -0.107385
    139 C48         5.3090   -5.0060    1.1450 c3        1 MOL      0.051726
    140 C49         5.7500   -3.5240    0.9240 c3        1 MOL      0.056054
    141 H60         6.6030   -4.6440   -1.7630 h1        1 MOL      0.080992
    142 H61         5.5210   -6.6060   -0.3310 hc        1 MOL      0.075942
    143 H62         7.0670   -5.8070    0.2690 hc        1 MOL      0.075942
    144 H63         4.2320   -5.1540    1.1630 hc        1 MOL     -0.025248
    145 H64         5.7900   -5.3780    2.0490 hc        1 MOL     -0.025248
    146 H65         5.0080   -2.9320    1.4660 h1        1 MOL     -0.045409
    147 H66         6.7330   -3.2800    1.3220 h1        1 MOL     -0.045409
    148 N13         3.4290   -4.3250   -1.7030 n         1 MOL      0.059044
    149 C50         2.1640   -4.5170   -2.4170 c3        1 MOL     -0.246557
    150 C51         2.0990   -3.6110   -3.6960 c         1 MOL      0.419153
    151 O21         1.2470   -3.8960   -4.6340 o         1 MOL     -0.539577
    152 C52         0.9700   -4.2140   -1.5260 c3        1 MOL      0.129809
    153 C53         1.0590   -5.2790   -0.3820 c3        1 MOL     -0.099618
    154 C54        -0.1990   -5.1500    0.5210 c         1 MOL      0.532517
    155 O22        -1.2640   -5.7200    0.1840 o         1 MOL     -0.629403
    156 O23        -0.0860   -4.5760    1.6550 o         1 MOL     -0.629403
    157 H67         3.4580   -3.7930   -0.8340 hn        1 MOL      0.144035
    158 H68         2.0350   -5.4910   -2.8950 h1        1 MOL      0.132985
    159 H69         0.1000   -4.3100   -2.1820 hc        1 MOL      0.040025
    160 H70         0.9850   -3.1670   -1.2190 hc        1 MOL      0.040025
    161 H71         1.9090   -5.0710    0.2630 hc        1 MOL      0.002452
    162 H72         1.2150   -6.3020   -0.6900 hc        1 MOL      0.002452
    163 N14         3.0050   -2.6550   -3.7430 n         1 MOL     -0.096876
    164 C55         3.1600   -1.6120   -4.8000 c3        1 MOL     -0.154721
    165 H73         2.1770   -1.3300   -5.1780 h1        1 MOL      0.080548
    166 H74         3.6520   -0.7360   -4.3780 h1        1 MOL      0.080548
    167 H75         3.7620   -2.0090   -5.6170 h1        1 MOL      0.080548
    168 H76         3.4930   -2.4800   -2.8710 hn        1 MOL     -0.005039
    169 Ca1         0.1280   -2.8870    3.4450 Ca        1 MOL      1.779735
    170 O24        -0.6310   -3.5170    6.0470 oh        1 MOL     -0.876153
    171 H77        -1.4440   -4.0100    5.8880 ho        1 MOL      0.420578
    172 H78        -0.6620   -3.2990    6.9820 ho        1 MOL      0.420578
    173 O25        -2.4450   -4.4230    3.4810 oh        1 MOL     -0.876153
    174 H79        -2.7700   -4.9230    2.7390 ho        1 MOL      0.420578
    175 H80        -3.1160   -4.5270    4.1590 ho        1 MOL      0.420578
    176 O26         2.6910   -2.8770    2.3190 oh        1 MOL     -0.876153
    177 H81         2.9970   -2.4360    1.5240 ho        1 MOL      0.420578
    178 H82         3.4580   -3.3460    2.6530 ho        1 MOL      0.420578
    179 O27         1.6550   -1.6490    5.3400 oh        1 MOL     -0.876153
    180 H83         2.1610   -0.8530    5.1910 ho        1 MOL      0.420578
    181 H84         1.7910   -1.8560    6.2590 ho        1 MOL      0.420578
    182 O28        -1.7140   -1.0690    3.9470 oh        1 MOL     -0.876153
    183 H85        -1.7010   -0.7580    4.8490 ho        1 MOL      0.420578
    184 H86        -2.1070   -0.3500    3.4490 ho        1 MOL      0.420578
    185 O29         1.7740   -4.5290    4.8560 oh        1 MOL     -0.876153
    186 H87         2.2980   -5.2680    4.5490 ho        1 MOL      0.420578
    187 H88         2.0010   -4.4370    5.7750 ho        1 MOL      0.420578
@<TRIPOS>BOND
     1    1    2 1   
     2    1    4 1   
     3    1    5 1   
     4    1    6 1   
     5    2    3 2   
     6    2    7 1   
     7    7    8 1   
     8    7   15 1   
     9    8    9 1   
    10    8   11 1   
    11    8   16 1   
    12    9   10 2   
    13    9   19 1   
    14   11   12 1   
    15   11   17 1   
    16   11   18 1   
    17   12   13 1   
    18   12   14 1   
    19   19   20 1   
    20   19   24 1   
    21   20   21 1   
    22   20   23 1   
    23   20   25 1   
    24   21   22 2   
    25   21   29 1   
    26   23   26 1   
    27   23   27 1   
    28   23   28 1   
    29   29   30 1   
    30   29   37 1   
    31   30   31 1   
    32   30   33 1   
    33   30   38 1   
    34   31   32 2   
    35   31   41 1   
    36   33   34 1   
    37   33   39 1   
    38   33   40 1   
    39   34   35 1   
    40   34   36 1   
    41   41   42 1   
    42   41   45 1   
    43   42   43 1   
    44   42   46 1   
    45   42   47 1   
    46   43   44 2   
    47   43   48 1   
    48   48   49 1   
    49   48   56 1   
    50   49   50 1   
    51   49   52 1   
    52   49   57 1   
    53   50   51 2   
    54   50   62 1   
    55   52   53 1   
    56   52   58 1   
    57   52   59 1   
    58   53   54 1   
    59   53   55 2   
    60   54   60 1   
    61   54   61 1   
    62   62   63 1   
    63   62   66 1   
    64   63   64 1   
    65   63   67 1   
    66   63   68 1   
    67   64   65 2   
    68   64   69 1   
    69   69   70 1   
    70   69   76 1   
    71   70   71 1   
    72   70   73 1   
    73   70   77 1   
    74   71   72 2   
    75   71   83 1   
    76   73   74 1   
    77   73   75 1   
    78   73   78 1   
    79   74   80 1   
    80   74   81 1   
    81   74   82 1   
    82   75   79 1   
    83   83   84 1   
    84   83   91 1   
    85   84   85 1   
    86   84   87 1   
    87   84   92 1   
    88   85   86 2   
    89   85  102 1   
    90   87   88 1   
    91   87   89 1   
    92   87   93 1   
    93   88   90 1   
    94   88   94 1   
    95   88   95 1   
    96   89   96 1   
    97   89   97 1   
    98   89   98 1   
    99   90   99 1   
   100   90  100 1   
   101   90  101 1   
   102  102  103 1   
   103  102  110 1   
   104  103  104 1   
   105  103  106 1   
   106  103  111 1   
   107  104  105 2   
   108  104  114 1   
   109  106  107 1   
   110  106  112 1   
   111  106  113 1   
   112  107  108 1   
   113  107  109 1   
   114  114  115 1   
   115  114  125 1   
   116  115  116 1   
   117  115  118 1   
   118  115  126 1   
   119  116  117 2   
   120  116  134 1   
   121  118  119 1   
   122  118  127 1   
   123  118  128 1   
   124  119  120 ar  
   125  119  121 ar  
   126  120  122 ar  
   127  120  129 1   
   128  121  123 ar  
   129  121  130 1   
   130  122  124 ar  
   131  122  131 1   
   132  123  124 ar  
   133  123  132 1   
   134  124  133 1   
   135  134  135 1   
   136  134  140 1   
   137  135  136 1   
   138  135  138 1   
   139  135  141 1   
   140  136  137 2   
   141  136  148 1   
   142  138  139 1   
   143  138  142 1   
   144  138  143 1   
   145  139  140 1   
   146  139  144 1   
   147  139  145 1   
   148  140  146 1   
   149  140  147 1   
   150  148  149 1   
   151  148  157 1   
   152  149  150 1   
   153  149  152 1   
   154  149  158 1   
   155  150  151 2   
   156  150  163 1   
   157  152  153 1   
   158  152  159 1   
   159  152  160 1   
   160  153  154 1   
   161  153  161 1   
   162  153  162 1   
   163  154  155 1   
   164  154  156 1   
   165  163  164 1   
   166  163  168 1   
   167  164  165 1   
   168  164  166 1   
   169  164  167 1   
   170  170  171 1   
   171  170  172 1   
   172  173  174 1   
   173  173  175 1   
   174  176  177 1   
   175  176  178 1   
   176  179  180 1   
   177  179  181 1   
   178  182  183 1   
   179  182  184 1   
   180  185  186 1   
   181  185  187 1   
@<TRIPOS>SUBSTRUCTURE
     1 MOL         1 TEMP              0 ****  ****    0 ROOT
