@<TRIPOS>MOLECULE
MOL
  181   177     1     0     0
SMALL
resp


@<TRIPOS>ATOM
      1 C1          3.9100    7.2950   -1.9320 c3        1 MOL     -0.371549
      2 C2          5.1770    6.7840   -1.2030 c         1 MOL      0.703729
      3 O1          5.3430    7.0990   -0.0380 o         1 MOL     -0.611558
      4 H1          3.3060    7.8830   -1.2400 hc        1 MOL      0.089372
      5 H2          4.2040    7.9180   -2.7770 hc        1 MOL      0.089372
      6 H3          3.3290    6.4460   -2.2900 hc        1 MOL      0.089372
      7 N1          6.0110    5.9750   -1.8020 n         1 MOL     -0.554578
      8 C3          7.1230    5.3900   -1.0900 c3        1 MOL      0.246389
      9 C4          6.6900    4.1900   -0.1940 c         1 MOL      0.462016
     10 O2          6.8570    3.0180   -0.5070 o         1 MOL     -0.501897
     11 C5          8.1990    5.1130   -2.0520 c3        1 MOL     -0.157168
     12 C6          9.5240    5.0960   -1.2620 c         1 MOL      0.650132
     13 O3         10.4470    5.8250   -1.6920 o         1 MOL     -0.713053
     14 O4          9.7260    4.4090   -0.2100 o         1 MOL     -0.713053
     15 H4          5.8360    5.5500   -2.7070 hn        1 MOL      0.294390
     16 H5          7.5010    6.1830   -0.4390 h1        1 MOL      0.037028
     17 H6          8.2700    5.9210   -2.7770 hc        1 MOL     -0.000857
     18 H7          7.9670    4.1810   -2.5650 hc        1 MOL     -0.000857
     19 N2          6.1860    4.6270    0.9830 n         1 MOL     -0.614548
     20 C7          5.7580    3.8330    2.1420 c3        1 MOL      0.550513
     21 C8          4.3080    3.3080    1.8830 c         1 MOL      0.290287
     22 O5          3.5660    3.9780    1.1160 o         1 MOL     -0.484230
     23 C9          5.8470    4.6530    3.4440 c3        1 MOL     -0.436809
     24 H8          6.0290    5.6340    0.9620 hn        1 MOL      0.313414
     25 H9          6.4260    2.9670    2.1280 h1        1 MOL      0.011911
     26 H10         5.2730    5.5630    3.2750 hc        1 MOL      0.105212
     27 H11         5.2460    4.1000    4.1580 hc        1 MOL      0.105212
     28 H12         6.8930    4.8520    3.7040 hc        1 MOL      0.105212
     29 N3          3.8110    2.1790    2.5330 n         1 MOL     -0.296884
     30 C10         4.4830    1.1550    3.4260 c3        1 MOL     -0.292228
     31 C11         4.9590   -0.1150    2.7500 c         1 MOL      0.783092
     32 O6          5.5150   -1.0110    3.3450 o         1 MOL     -0.553203
     33 C12         3.3840    0.7660    4.4760 c3        1 MOL      0.041923
     34 C13         2.1960   -0.0090    3.9800 c         1 MOL      0.554020
     35 O7          1.8180    0.0640    2.7830 o         1 MOL     -0.655993
     36 O8          1.5780   -0.6990    4.7910 o         1 MOL     -0.655993
     37 H13         2.8320    2.0350    2.3390 hn        1 MOL      0.201931
     38 H14         5.3130    1.7250    3.8480 h1        1 MOL      0.106448
     39 H15         3.0820    1.5740    5.1400 hc        1 MOL      0.016349
     40 H16         3.9630    0.0780    5.0940 hc        1 MOL      0.016349
     41 N4          4.8830   -0.1940    1.3970 n         1 MOL     -0.587300
     42 C14         5.6950   -1.1410    0.6590 c3        1 MOL      0.099308
     43 C15         7.2550   -1.0150    0.7470 c         1 MOL      0.518996
     44 O9          7.7110   -0.0560    1.3520 o         1 MOL     -0.471226
     45 H17         4.3330    0.5320    0.9540 hn        1 MOL      0.350154
     46 H18         5.4710   -1.1180   -0.4140 h1        1 MOL      0.015510
     47 H19         5.4130   -2.1440    0.9730 h1        1 MOL      0.015510
     48 N5          7.9690   -1.9320    0.0730 n         1 MOL     -0.507361
     49 C16         7.4840   -3.2100   -0.4900 c3        1 MOL      0.203029
     50 C17         6.5200   -3.1230   -1.7070 c         1 MOL      0.452171
     51 O10         6.5720   -2.1250   -2.4970 o         1 MOL     -0.492702
     52 C18         8.7360   -3.9560   -0.9870 c3        1 MOL     -0.394522
     53 C19         8.5700   -5.4200   -1.3860 c         1 MOL      0.653029
     54 N6          8.1350   -6.2450   -0.4250 n         1 MOL     -0.784611
     55 O11         8.6540   -5.7540   -2.5090 o         1 MOL     -0.520326
     56 H20         8.9540   -1.8600    0.2760 hn        1 MOL      0.309971
     57 H21         7.0190   -3.7370    0.3400 h1        1 MOL      0.015582
     58 H22         9.4380   -3.9450   -0.1560 hc        1 MOL      0.127884
     59 H23         9.0560   -3.3220   -1.8170 hc        1 MOL      0.127884
     60 H24         8.1550   -5.9810    0.5580 hn        1 MOL      0.355658
     61 H25         8.0440   -7.2180   -0.6770 hn        1 MOL      0.355658
     62 N7          5.5430   -4.0600   -1.6880 n         1 MOL     -0.194821
     63 C20         4.3400   -3.8030   -2.4490 c3        1 MOL     -0.455678
     64 C21         3.1790   -4.7110   -2.0480 c         1 MOL      0.653596
     65 O12         3.1150   -5.8710   -2.4130 o         1 MOL     -0.562022
     66 H26         5.6080   -4.7980   -0.9960 hn        1 MOL      0.213629
     67 H27         4.4840   -3.9990   -3.5050 h1        1 MOL      0.199294
     68 H28         4.0410   -2.7730   -2.2400 h1        1 MOL      0.199294
     69 N8          2.2080   -4.1790   -1.3380 n         1 MOL     -0.362282
     70 C22         0.8590   -4.6720   -1.1880 c3        1 MOL      0.021508
     71 C23        -0.1930   -3.5890   -1.3000 c         1 MOL      0.419406
     72 O13         0.1400   -2.4030   -1.1280 o         1 MOL     -0.468080
     73 C24         0.7040   -5.5360    0.1070 c3        1 MOL      0.392860
     74 C25         1.6120   -6.6590    0.2320 c3        1 MOL     -0.389658
     75 O14         0.8100   -4.6260    1.2170 oh        1 MOL     -0.580945
     76 H29         2.2710   -3.2220   -1.0060 hn        1 MOL      0.186985
     77 H30         0.6400   -5.3890   -1.9900 h1        1 MOL      0.014768
     78 H31        -0.2820   -5.9970    0.0560 h1        1 MOL      0.012624
     79 H32         0.0430   -4.0820    1.4210 ho        1 MOL      0.348281
     80 H33         1.6930   -7.1480   -0.7340 hc        1 MOL      0.096332
     81 H34         2.5770   -6.2210    0.4780 hc        1 MOL      0.096332
     82 H35         1.2760   -7.3970    0.9620 hc        1 MOL      0.096332
     83 N9         -1.4170   -4.0080   -1.6300 n         1 MOL     -0.220816
     84 C26        -2.5780   -3.1760   -1.7980 c3        1 MOL     -0.152227
     85 C27        -3.5630   -3.5280   -0.6850 c         1 MOL      0.375770
     86 O15        -4.0050   -4.6750   -0.5690 o         1 MOL     -0.540508
     87 C28        -3.2080   -3.3260   -3.1530 c3        1 MOL      0.169049
     88 C29        -4.7240   -3.0000   -3.3070 c3        1 MOL      0.032262
     89 C30        -2.4710   -2.5370   -4.1940 c3        1 MOL     -0.430923
     90 C31        -5.1420   -1.5470   -3.1190 c3        1 MOL     -0.335648
     91 H36        -1.5760   -4.9950   -1.7820 hn        1 MOL      0.232368
     92 H37        -2.2690   -2.1440   -1.6420 h1        1 MOL      0.120914
     93 H38        -3.1230   -4.3540   -3.4990 hc        1 MOL      0.004914
     94 H39        -5.2560   -3.6460   -2.6110 hc        1 MOL      0.007805
     95 H40        -5.0680   -3.3960   -4.2600 hc        1 MOL      0.007805
     96 H41        -2.9720   -2.6750   -5.1550 hc        1 MOL      0.105751
     97 H42        -2.6630   -1.4840   -3.9990 hc        1 MOL      0.105751
     98 H43        -1.4320   -2.8760   -4.1510 hc        1 MOL      0.105751
     99 H44        -6.2160   -1.4950   -2.9550 hc        1 MOL      0.085598
    100 H45        -4.5600   -1.1510   -2.2810 hc        1 MOL      0.085598
    101 H46        -4.9650   -0.9780   -4.0310 hc        1 MOL      0.085598
    102 N10        -3.8020   -2.6350    0.2240 n         1 MOL     -0.089376
    103 C32        -4.4270   -2.8890    1.5440 c3        1 MOL     -0.074572
    104 C33        -5.7730   -2.1840    1.8560 c         1 MOL      0.570144
    105 O16        -6.4890   -2.5870    2.7710 o         1 MOL     -0.564768
    106 C34        -3.3300   -2.6470    2.5690 c3        1 MOL     -0.157633
    107 C35        -1.9350   -3.2300    2.1600 c         1 MOL      0.567536
    108 O17        -1.7210   -4.4850    2.3860 o         1 MOL     -0.620173
    109 O18        -1.0550   -2.4960    1.5890 o         1 MOL     -0.620173
    110 H47        -3.2100   -1.8180    0.1420 hn        1 MOL      0.153255
    111 H48        -4.7160   -3.9450    1.4540 h1        1 MOL      0.107032
    112 H49        -3.5280   -3.0360    3.5620 hc        1 MOL      0.062627
    113 H50        -3.2530   -1.5790    2.7680 hc        1 MOL      0.062627
    114 N11        -6.0880   -1.1570    1.1010 n         1 MOL     -0.487978
    115 C36        -7.3870   -0.3740    1.1700 c3        1 MOL      0.195395
    116 C37        -7.3100    0.8310    0.1980 c         1 MOL      0.299045
    117 O19        -7.0790    0.7400   -1.0020 o         1 MOL     -0.500133
    118 C38        -8.4410   -1.2990    0.6340 c3        1 MOL     -0.280438
    119 C39        -9.8360   -0.6120    0.5700 ca        1 MOL      0.088050
    120 C40       -10.4350   -0.3150   -0.6520 ca        1 MOL     -0.113398
    121 C41       -10.4980   -0.3690    1.7270 ca        1 MOL     -0.113398
    122 C42       -11.7370    0.1280   -0.7040 ca        1 MOL     -0.146219
    123 C43       -11.8300    0.1070    1.6880 ca        1 MOL     -0.146219
    124 C44       -12.4680    0.4450    0.4590 ca        1 MOL     -0.085027
    125 H51        -5.3640   -0.8850    0.4590 hn        1 MOL      0.293536
    126 H52        -7.6830   -0.0040    2.1430 h1        1 MOL      0.045602
    127 H53        -8.5340   -2.2140    1.2300 hc        1 MOL      0.126447
    128 H54        -8.1950   -1.6160   -0.3780 hc        1 MOL      0.126447
    129 H55        -9.8750   -0.4100   -1.5740 ha        1 MOL      0.112696
    130 H56       -10.0490   -0.6390    2.6720 ha        1 MOL      0.112696
    131 H57       -12.3060    0.3190   -1.6050 ha        1 MOL      0.102090
    132 H58       -12.3240    0.0550    2.6430 ha        1 MOL      0.102090
    133 H59       -13.5030    0.7500    0.4580 ha        1 MOL      0.098909
    134 N12        -7.7860    2.0420    0.5850 n         1 MOL      0.132176
    135 C45        -7.9990    3.2230   -0.2580 c3        1 MOL     -0.255313
    136 C46        -6.7410    3.9020   -0.7690 c         1 MOL      0.691345
    137 O20        -6.8430    4.9800   -1.2690 o         1 MOL     -0.584245
    138 C47        -8.9190    4.2130    0.5470 c3        1 MOL      0.005119
    139 C48        -8.7030    3.8030    2.0250 c3        1 MOL     -0.077095
    140 C49        -8.1750    2.3800    1.9360 c3        1 MOL     -0.099199
    141 H60        -8.4820    2.9390   -1.1940 h1        1 MOL      0.097201
    142 H61        -8.7830    5.2830    0.3710 hc        1 MOL      0.039697
    143 H62        -9.9390    3.9290    0.3120 hc        1 MOL      0.039697
    144 H63        -7.8860    4.4560    2.3460 hc        1 MOL      0.045842
    145 H64        -9.6300    3.8680    2.5960 hc        1 MOL      0.045842
    146 H65        -7.3140    2.1870    2.5750 h1        1 MOL      0.041877
    147 H66        -8.9940    1.7070    2.2140 h1        1 MOL      0.041877
    148 N13        -5.5720    3.3260   -0.6650 n         1 MOL     -0.296056
    149 C50        -4.2770    3.8060   -1.2550 c3        1 MOL     -0.397888
    150 C51        -4.2640    4.2220   -2.7580 c         1 MOL      0.624449
    151 O21        -3.4680    5.1300   -3.0960 o         1 MOL     -0.538932
    152 C52        -3.0460    2.9990   -0.8820 c3        1 MOL      0.108900
    153 C53        -3.0210    1.5940   -1.4700 c3        1 MOL      0.107666
    154 C54        -2.0400    0.6860   -0.7500 c         1 MOL      0.621569
    155 O22        -0.7990    0.6820   -1.0080 o         1 MOL     -0.723124
    156 O23        -2.4870   -0.0180    0.1940 o         1 MOL     -0.723124
    157 H67        -5.5160    2.4250   -0.2220 hn        1 MOL      0.177275
    158 H68        -3.9810    4.6830   -0.6690 h1        1 MOL      0.155305
    159 H69        -2.9920    2.9910    0.2080 hc        1 MOL      0.032591
    160 H70        -2.1060    3.4580   -1.1800 hc        1 MOL      0.032591
    161 H71        -2.9180    1.6670   -2.5520 hc        1 MOL     -0.047180
    162 H72        -3.9650    1.1210   -1.1970 hc        1 MOL     -0.047180
    163 N14        -5.0880    3.5890   -3.6100 n         1 MOL     -0.292487
    164 C55        -5.1530    4.0240   -5.0470 c3        1 MOL     -0.075120
    165 H73        -4.5960    3.3200   -5.6650 h1        1 MOL      0.064572
    166 H74        -6.1930    4.0490   -5.3730 h1        1 MOL      0.064572
    167 H75        -4.7170    5.0180   -5.1460 h1        1 MOL      0.064572
    168 H76        -5.8190    2.9900   -3.2400 hn        1 MOL      0.237450
    169 Ca1         0.2630   -0.5390    0.9670 Ca        1 MOL      1.743123
    170 O24         2.5820   -0.3830   -0.9230 oh        1 MOL     -0.815033
    171 H77         3.2450    0.2940   -0.8590 ho        1 MOL      0.387622
    172 H78         2.7270   -0.7910   -1.7790 ho        1 MOL      0.387622
    173 O25         2.3440   -2.3720    1.4910 oh        1 MOL     -0.815033
    174 H79         3.2690   -2.1560    1.5190 ho        1 MOL      0.387622
    175 H80         2.2960   -3.2960    1.7410 ho        1 MOL      0.387622
    176 O26        -1.0330    0.1320    3.2460 oh        1 MOL     -0.815033
    177 H81        -0.2000   -0.0080    3.7040 ho        1 MOL      0.387622
    178 H82        -1.5130    0.7410    3.8030 ho        1 MOL      0.387622
    179 O27        -0.2430    2.1790    1.4920 oh        1 MOL     -0.815033
    180 H83        -1.1710    2.3950    1.5370 ho        1 MOL      0.387622
    181 H84         0.1200    2.4950    2.3180 ho        1 MOL      0.387622
@<TRIPOS>BOND
     1    1    2 1   
     2    1    4 1   
     3    1    5 1   
     4    1    6 1   
     5    2    3 2   
     6    2    7 1   
     7    7    8 1   
     8    7   15 1   
     9    8    9 1   
    10    8   11 1   
    11    8   16 1   
    12    9   10 2   
    13    9   19 1   
    14   11   12 1   
    15   11   17 1   
    16   11   18 1   
    17   12   13 1   
    18   12   14 1   
    19   19   20 1   
    20   19   24 1   
    21   20   21 1   
    22   20   23 1   
    23   20   25 1   
    24   21   22 2   
    25   21   29 1   
    26   23   26 1   
    27   23   27 1   
    28   23   28 1   
    29   29   30 1   
    30   29   37 1   
    31   30   31 1   
    32   30   33 1   
    33   30   38 1   
    34   31   32 2   
    35   31   41 1   
    36   33   34 1   
    37   33   39 1   
    38   33   40 1   
    39   34   35 1   
    40   34   36 1   
    41   41   42 1   
    42   41   45 1   
    43   42   43 1   
    44   42   46 1   
    45   42   47 1   
    46   43   44 2   
    47   43   48 1   
    48   48   49 1   
    49   48   56 1   
    50   49   50 1   
    51   49   52 1   
    52   49   57 1   
    53   50   51 2   
    54   50   62 1   
    55   52   53 1   
    56   52   58 1   
    57   52   59 1   
    58   53   54 1   
    59   53   55 2   
    60   54   60 1   
    61   54   61 1   
    62   62   63 1   
    63   62   66 1   
    64   63   64 1   
    65   63   67 1   
    66   63   68 1   
    67   64   65 2   
    68   64   69 1   
    69   69   70 1   
    70   69   76 1   
    71   70   71 1   
    72   70   73 1   
    73   70   77 1   
    74   71   72 2   
    75   71   83 1   
    76   73   74 1   
    77   73   75 1   
    78   73   78 1   
    79   74   80 1   
    80   74   81 1   
    81   74   82 1   
    82   75   79 1   
    83   83   84 1   
    84   83   91 1   
    85   84   85 1   
    86   84   87 1   
    87   84   92 1   
    88   85   86 2   
    89   85  102 1   
    90   87   88 1   
    91   87   89 1   
    92   87   93 1   
    93   88   90 1   
    94   88   94 1   
    95   88   95 1   
    96   89   96 1   
    97   89   97 1   
    98   89   98 1   
    99   90   99 1   
   100   90  100 1   
   101   90  101 1   
   102  102  103 1   
   103  102  110 1   
   104  103  104 1   
   105  103  106 1   
   106  103  111 1   
   107  104  105 2   
   108  104  114 1   
   109  106  107 1   
   110  106  112 1   
   111  106  113 1   
   112  107  108 1   
   113  107  109 1   
   114  114  115 1   
   115  114  125 1   
   116  115  116 1   
   117  115  118 1   
   118  115  126 1   
   119  116  117 2   
   120  116  134 1   
   121  118  119 1   
   122  118  127 1   
   123  118  128 1   
   124  119  120 ar  
   125  119  121 ar  
   126  120  122 ar  
   127  120  129 1   
   128  121  123 ar  
   129  121  130 1   
   130  122  124 ar  
   131  122  131 1   
   132  123  124 ar  
   133  123  132 1   
   134  124  133 1   
   135  134  135 1   
   136  134  140 1   
   137  135  136 1   
   138  135  138 1   
   139  135  141 1   
   140  136  137 2   
   141  136  148 1   
   142  138  139 1   
   143  138  142 1   
   144  138  143 1   
   145  139  140 1   
   146  139  144 1   
   147  139  145 1   
   148  140  146 1   
   149  140  147 1   
   150  148  149 1   
   151  148  157 1   
   152  149  150 1   
   153  149  152 1   
   154  149  158 1   
   155  150  151 2   
   156  150  163 1   
   157  152  153 1   
   158  152  159 1   
   159  152  160 1   
   160  153  154 1   
   161  153  161 1   
   162  153  162 1   
   163  154  155 1   
   164  154  156 1   
   165  163  164 1   
   166  163  168 1   
   167  164  165 1   
   168  164  166 1   
   169  164  167 1   
   170  170  171 1   
   171  170  172 1   
   172  173  174 1   
   173  173  175 1   
   174  176  177 1   
   175  176  178 1   
   176  179  180 1   
   177  179  181 1   
@<TRIPOS>SUBSTRUCTURE
     1 MOL         1 TEMP              0 ****  ****    0 ROOT
