@<TRIPOS>MOLECULE
MOL
  189   185     1     0     0
SMALL
resp


@<TRIPOS>ATOM
      1 C1          9.3370    0.1570    1.8030 c3        1 MOL     -0.682141
      2 C2          8.1940   -0.2630    0.8360 c         1 MOL      0.854128
      3 O1          7.0130   -0.2510    1.2080 o         1 MOL     -0.734889
      4 H1          9.3020    1.2350    1.9590 hc        1 MOL      0.175598
      5 H2          9.2100   -0.3520    2.7580 hc        1 MOL      0.175598
      6 H3         10.2990   -0.1170    1.3690 hc        1 MOL      0.175598
      7 N1          8.5260   -0.4790   -0.4260 n         1 MOL     -0.593283
      8 C3          7.5450   -0.5570   -1.5480 c3        1 MOL      0.099912
      9 C4          6.7610   -1.9140   -1.6210 c         1 MOL      0.575836
     10 O2          6.4330   -2.4250   -2.6920 o         1 MOL     -0.518122
     11 C5          8.2450   -0.0590   -2.8840 c3        1 MOL     -0.090674
     12 C6          9.2100    1.1120   -2.6150 c         1 MOL      0.709667
     13 O3         10.4190    0.8850   -2.2820 o         1 MOL     -0.707529
     14 O4          8.7360    2.2860   -2.8760 o         1 MOL     -0.707529
     15 H4          9.4900   -0.4270   -0.7070 hn        1 MOL      0.259090
     16 H5          6.8310    0.2400   -1.3500 h1        1 MOL      0.047784
     17 H6          7.4130    0.2330   -3.5320 hc        1 MOL      0.014994
     18 H7          8.8010   -0.8460   -3.3930 hc        1 MOL      0.014994
     19 N2          6.5530   -2.4670   -0.4250 n         1 MOL     -0.521095
     20 C7          5.9180   -3.7980   -0.2380 c3        1 MOL      0.123721
     21 C8          4.4190   -3.7960   -0.4810 c         1 MOL      0.416765
     22 O5          3.9150   -4.7050   -1.1160 o         1 MOL     -0.551440
     23 C9          6.3600   -4.3700    1.1360 c3        1 MOL     -0.135713
     24 C10         7.8440   -4.4650    1.2700 c3        1 MOL     -0.242759
     25 C11         8.1790   -4.8310    2.7380 c3        1 MOL     -0.181192
     26 C12         9.6840   -5.0970    2.8890 c3        1 MOL      0.099916
     27 N3         10.0470   -5.5640    4.2940 n4        1 MOL     -0.298660
     28 H8          6.9020   -1.9660    0.3820 hn        1 MOL      0.362329
     29 H9          6.2300   -4.4890   -1.0270 h1        1 MOL      0.086389
     30 H10         5.9360   -5.3590    1.3150 hc        1 MOL      0.078039
     31 H11         6.0860   -3.6340    1.9000 hc        1 MOL      0.078039
     32 H12         8.3590   -3.5120    1.0970 hc        1 MOL      0.108803
     33 H13         8.2520   -5.3450    0.7670 hc        1 MOL      0.108803
     34 H14         7.6980   -5.7940    2.9290 hc        1 MOL      0.083901
     35 H15         7.7900   -4.0950    3.4310 hc        1 MOL      0.083901
     36 H16        10.0990   -4.1250    2.6100 hx        1 MOL      0.073560
     37 H17         9.9740   -5.8640    2.1670 hx        1 MOL      0.073560
     38 H18        11.0370   -5.5420    4.4960 hn        1 MOL      0.284814
     39 H19         9.6970   -5.0050    5.0590 hn        1 MOL      0.284814
     40 H20         9.6610   -6.4870    4.4400 hn        1 MOL      0.284814
     41 N4          3.5570   -2.8000   -0.2490 n         1 MOL     -0.075575
     42 C13         3.6070   -1.7520    0.7390 c3        1 MOL     -0.382717
     43 C14         3.5670   -0.4860   -0.0190 c         1 MOL      0.416301
     44 O6          2.9250   -0.3470   -1.1270 o         1 MOL     -0.518517
     45 C15         2.4790   -1.8480    1.7390 c3        1 MOL     -0.008158
     46 C16         1.1810   -2.1900    1.1500 c         1 MOL      0.600906
     47 O7          0.7940   -1.6930    0.0460 o         1 MOL     -0.658846
     48 O8          0.5310   -3.1020    1.6180 o         1 MOL     -0.658846
     49 H21         2.7150   -2.8600   -0.8120 hn        1 MOL      0.250132
     50 H22         4.5850   -1.7420    1.2170 h1        1 MOL      0.177984
     51 H23         2.4390   -0.9260    2.3230 hc        1 MOL      0.027765
     52 H24         2.6500   -2.5350    2.5710 hc        1 MOL      0.027765
     53 N5          4.0910    0.5800    0.6210 n         1 MOL     -0.208202
     54 C17         4.3460    1.8440    0.0120 c3        1 MOL     -0.047743
     55 C18         3.0850    2.6060   -0.3420 c         1 MOL      0.489165
     56 O9          1.9700    2.2160   -0.0750 o         1 MOL     -0.705236
     57 H25         4.3920    0.4960    1.5870 hn        1 MOL      0.257567
     58 H26         4.9340    1.7080   -0.8960 h1        1 MOL      0.116282
     59 H27         4.9590    2.4870    0.6460 h1        1 MOL      0.116282
     60 N6          3.2870    3.7720   -0.9930 n         1 MOL     -0.369117
     61 C19         2.2530    4.6770   -1.5830 c3        1 MOL      0.271511
     62 C20         2.5810    6.1760   -1.4110 c         1 MOL      0.316459
     63 O10         3.7910    6.5600   -1.3120 o         1 MOL     -0.499427
     64 C21         1.9800    4.4440   -3.1060 c3        1 MOL     -0.106719
     65 C22         1.9260    2.9960   -3.3890 c         1 MOL      0.523216
     66 O11         1.1970    2.1870   -2.6940 o         1 MOL     -0.608659
     67 O12         2.5340    2.5570   -4.3920 o         1 MOL     -0.608659
     68 H28         4.2170    4.1290   -1.1520 hn        1 MOL      0.244780
     69 H29         1.3650    4.4620   -0.9880 h1        1 MOL      0.042181
     70 H30         2.8150    4.8650   -3.6640 hc        1 MOL      0.046599
     71 H31         1.0400    4.9190   -3.4090 hc        1 MOL      0.046599
     72 N7          1.6190    7.1210   -1.3050 n         1 MOL     -0.395782
     73 C23         0.1640    6.9260   -1.4540 c3        1 MOL     -0.080279
     74 C24        -0.5220    6.2650   -0.2340 c         1 MOL      0.538216
     75 O13        -0.0280    6.2350    0.8390 o         1 MOL     -0.470414
     76 H32         1.9120    8.0850   -1.2310 hn        1 MOL      0.315771
     77 H33         0.0680    6.4100   -2.4130 h1        1 MOL      0.066268
     78 H34        -0.3720    7.8580   -1.6240 h1        1 MOL      0.066268
     79 N8         -1.6040    5.5640   -0.5940 n         1 MOL     -0.363654
     80 C25        -2.4050    4.5980    0.2120 c3        1 MOL     -0.403720
     81 C26        -1.5230    3.4590    0.8040 c         1 MOL      1.105426
     82 O14        -0.9190    2.8210    0.0030 o         1 MOL     -0.740916
     83 C27        -3.5430    3.9660   -0.6590 c3        1 MOL      0.484468
     84 C28        -4.5690    5.0580   -1.0750 c3        1 MOL     -0.369914
     85 O15        -4.2800    3.0590    0.0810 oh        1 MOL     -0.583070
     86 H35        -1.9190    5.7120   -1.5440 hn        1 MOL      0.235639
     87 H36        -2.8960    5.1450    1.0140 h1        1 MOL      0.097503
     88 H37        -3.1070    3.3660   -1.4540 h1        1 MOL     -0.005285
     89 H38        -4.7240    3.5710    0.7560 ho        1 MOL      0.304408
     90 H39        -4.2320    5.8880   -1.7020 hc        1 MOL      0.100451
     91 H40        -5.5020    4.6490   -1.4850 hc        1 MOL      0.100451
     92 H41        -4.9040    5.6020   -0.1940 hc        1 MOL      0.100451
     93 N9         -1.4570    3.3990    2.1560 n         1 MOL     -0.628279
     94 C29        -0.8310    2.3950    2.9920 c3        1 MOL      0.101723
     95 C30        -1.1070    0.9550    2.4730 c         1 MOL      0.048307
     96 O16        -0.5060    0.5150    1.5030 o         1 MOL     -0.373724
     97 C31         0.6400    2.6910    3.2340 c3        1 MOL      0.087449
     98 C32         0.9650    4.1240    3.6610 c3        1 MOL      0.019691
     99 C33         1.2440    1.5240    4.0890 c3        1 MOL     -0.550851
    100 C34         0.5160    4.6410    5.0230 c3        1 MOL     -0.045371
    101 H42        -1.9940    4.0910    2.6650 hn        1 MOL      0.293644
    102 H43        -1.1370    2.5310    4.0310 h1        1 MOL      0.038329
    103 H44         1.0550    2.6720    2.2310 hc        1 MOL      0.139836
    104 H45         0.6090    4.7860    2.8750 hc        1 MOL      0.005316
    105 H46         2.0520    4.1400    3.6530 hc        1 MOL      0.005316
    106 H47         1.2490    0.5560    3.5880 hc        1 MOL      0.145996
    107 H48         2.2410    1.7420    4.4490 hc        1 MOL      0.145996
    108 H49         0.7060    1.3700    5.0270 hc        1 MOL      0.145996
    109 H50         0.8400    3.9720    5.8200 hc        1 MOL      0.008660
    110 H51         0.8750    5.6370    5.2750 hc        1 MOL      0.008660
    111 H52        -0.5670    4.7090    5.0690 hc        1 MOL      0.008660
    112 N10        -2.0280    0.2580    3.1710 n         1 MOL     -0.083201
    113 C35        -2.4220   -1.0970    2.7200 c3        1 MOL     -0.094289
    114 C36        -3.9440   -1.1660    2.4140 c         1 MOL      0.764570
    115 O17        -4.4300   -2.2710    2.1850 o         1 MOL     -0.592867
    116 C37        -1.9430   -2.0950    3.7670 c3        1 MOL      0.384437
    117 C38        -2.6640   -2.0860    5.1180 c3        1 MOL     -0.246624
    118 O18        -0.5470   -1.9130    3.9990 oh        1 MOL     -0.589912
    119 H53        -2.3070    0.5970    4.0740 hn        1 MOL      0.216591
    120 H54        -1.9040   -1.3010    1.7730 h1        1 MOL      0.094982
    121 H55        -2.1130   -3.0770    3.3250 h1        1 MOL      0.003888
    122 H56        -0.0860   -2.2260    3.2080 ho        1 MOL      0.338982
    123 H57        -2.4540   -1.1340    5.6000 hc        1 MOL      0.048483
    124 H58        -3.7370   -2.1250    4.8870 hc        1 MOL      0.048483
    125 H59        -2.2460   -2.9050    5.7010 hc        1 MOL      0.048483
    126 N11        -4.6880    0.0060    2.5010 n         1 MOL     -0.578494
    127 C39        -6.1640    0.0130    2.1740 c3        1 MOL     -0.051161
    128 C40        -6.4370   -0.4550    0.7420 c         1 MOL      0.441486
    129 O19        -6.1650    0.2710   -0.1950 o         1 MOL     -0.453111
    130 C41        -6.7210    1.2830    2.6250 c3        1 MOL      0.406182
    131 C42        -8.1170    1.5710    2.0620 c3        1 MOL     -0.526160
    132 O20        -6.7820    1.3560    4.0450 oh        1 MOL     -0.638117
    133 H60        -4.1830    0.8480    2.7240 hn        1 MOL      0.201558
    134 H61        -6.5940   -0.8030    2.7440 h1        1 MOL      0.093056
    135 H62        -6.1240    2.1580    2.3440 h1        1 MOL      0.057550
    136 H63        -6.2000    2.0160    4.4400 ho        1 MOL      0.399458
    137 H64        -8.7790    0.8690    2.5600 hc        1 MOL      0.138598
    138 H65        -8.3660    2.5710    2.4010 hc        1 MOL      0.138598
    139 H66        -8.1840    1.5110    0.9740 hc        1 MOL      0.138598
    140 N12        -7.0390   -1.5950    0.5350 n         1 MOL     -0.188963
    141 C43        -7.2670   -2.3010   -0.7410 c3        1 MOL      0.060134
    142 C44        -6.1730   -2.0740   -1.7140 c         1 MOL      0.620564
    143 O21        -6.2750   -1.2930   -2.6450 o         1 MOL     -0.540958
    144 C45        -8.7150   -1.9620   -1.2650 c3        1 MOL     -0.449361
    145 C46        -9.7610   -2.2680   -0.1610 c3        1 MOL      0.143615
    146 C47       -11.1910   -1.8710   -0.6870 c3        1 MOL      0.084322
    147 C48       -12.2710   -2.5690    0.2190 c3        1 MOL     -0.075189
    148 N13       -13.6320   -2.6550   -0.4830 n4        1 MOL     -0.121418
    149 H67        -7.2900   -2.1370    1.3390 hn        1 MOL      0.190036
    150 H68        -7.3310   -3.3610   -0.4640 h1        1 MOL      0.050507
    151 H69        -8.9840   -2.5550   -2.1410 hc        1 MOL      0.153562
    152 H70        -8.7720   -0.9010   -1.5130 hc        1 MOL      0.153562
    153 H71        -9.5560   -1.6880    0.7390 hc        1 MOL     -0.014062
    154 H72        -9.8670   -3.3240    0.1090 hc        1 MOL     -0.014062
    155 H73       -11.3320   -2.2160   -1.7080 hc        1 MOL      0.002543
    156 H74       -11.3390   -0.7970   -0.7370 hc        1 MOL      0.002543
    157 H75       -12.3120   -1.8490    1.0420 hx        1 MOL      0.079967
    158 H76       -11.8670   -3.5600    0.4270 hx        1 MOL      0.079967
    159 H77       -14.0170   -1.7190   -0.6040 hn        1 MOL      0.200829
    160 H78       -13.5560   -3.0680   -1.3990 hn        1 MOL      0.200829
    161 H79       -14.2350   -3.1930    0.1250 hn        1 MOL      0.200829
    162 N14        -5.0140   -2.6140   -1.3970 n         1 MOL     -0.701612
    163 C49        -3.7050   -2.3450   -1.9610 c3        1 MOL      0.686241
    164 C50        -2.5060   -2.1760   -0.9780 c         1 MOL      0.074252
    165 O22        -1.9790   -1.0530   -0.9460 o         1 MOL     -0.466819
    166 C51        -3.3060   -3.3520   -3.0860 c3        1 MOL     -0.015647
    167 C52        -3.8520   -2.8930   -4.4150 c3        1 MOL     -0.289047
    168 C53        -3.4630   -3.9870   -5.3960 c         1 MOL      0.732658
    169 O23        -2.5900   -3.8470   -6.2680 o         1 MOL     -0.618225
    170 O24        -4.0270   -5.0780   -5.2950 o         1 MOL     -0.618225
    171 H80        -4.9760   -3.0280   -0.4720 hn        1 MOL      0.288302
    172 H81        -3.6690   -1.3510   -2.3980 h1        1 MOL     -0.043364
    173 H82        -3.6960   -4.3360   -2.8150 hc        1 MOL      0.024017
    174 H83        -2.2250   -3.4320   -3.2430 hc        1 MOL      0.024017
    175 H84        -3.4670   -1.9100   -4.7000 hc        1 MOL      0.055418
    176 H85        -4.9300   -2.9560   -4.4090 hc        1 MOL      0.055418
    177 N15        -1.9850   -3.1880   -0.2760 n         1 MOL     -0.371742
    178 C54        -2.5190   -4.5690   -0.1310 c3        1 MOL     -0.024488
    179 H86        -3.5470   -4.5250    0.2290 h1        1 MOL      0.045873
    180 H87        -2.4950   -5.0720   -1.0980 h1        1 MOL      0.045873
    181 H88        -1.9070   -5.1220    0.5820 h1        1 MOL      0.045873
    182 H89        -1.1550   -3.0260    0.2770 hn        1 MOL      0.419449
    183 Ca1         0.1250    0.5410   -1.1020 Ca        1 MOL      1.765793
    184 O25        -1.9710    1.3370   -2.5940 oh        1 MOL     -0.904256
    185 H90        -2.7790    0.8540   -2.7960 ho        1 MOL      0.442900
    186 H91        -2.1190    2.2140   -2.9480 ho        1 MOL      0.442900
    187 O26         0.5090   -1.3660   -2.9130 oh        1 MOL     -0.904256
    188 H92         0.8980   -2.1870   -2.6050 ho        1 MOL      0.442900
    189 H93         0.5310   -1.4340   -3.8680 ho        1 MOL      0.442900
@<TRIPOS>BOND
     1    1    2 1   
     2    1    4 1   
     3    1    5 1   
     4    1    6 1   
     5    2    3 2   
     6    2    7 1   
     7    7    8 1   
     8    7   15 1   
     9    8    9 1   
    10    8   11 1   
    11    8   16 1   
    12    9   10 2   
    13    9   19 1   
    14   11   12 1   
    15   11   17 1   
    16   11   18 1   
    17   12   13 1   
    18   12   14 1   
    19   19   20 1   
    20   19   28 1   
    21   20   21 1   
    22   20   23 1   
    23   20   29 1   
    24   21   22 2   
    25   21   41 1   
    26   23   24 1   
    27   23   30 1   
    28   23   31 1   
    29   24   25 1   
    30   24   32 1   
    31   24   33 1   
    32   25   26 1   
    33   25   34 1   
    34   25   35 1   
    35   26   27 1   
    36   26   36 1   
    37   26   37 1   
    38   27   38 1   
    39   27   39 1   
    40   27   40 1   
    41   41   42 1   
    42   41   49 1   
    43   42   43 1   
    44   42   45 1   
    45   42   50 1   
    46   43   44 2   
    47   43   53 1   
    48   45   46 1   
    49   45   51 1   
    50   45   52 1   
    51   46   47 1   
    52   46   48 1   
    53   53   54 1   
    54   53   57 1   
    55   54   55 1   
    56   54   58 1   
    57   54   59 1   
    58   55   56 2   
    59   55   60 1   
    60   60   61 1   
    61   60   68 1   
    62   61   62 1   
    63   61   64 1   
    64   61   69 1   
    65   62   63 2   
    66   62   72 1   
    67   64   65 1   
    68   64   70 1   
    69   64   71 1   
    70   65   66 1   
    71   65   67 1   
    72   72   73 1   
    73   72   76 1   
    74   73   74 1   
    75   73   77 1   
    76   73   78 1   
    77   74   75 2   
    78   74   79 1   
    79   79   80 1   
    80   79   86 1   
    81   80   81 1   
    82   80   83 1   
    83   80   87 1   
    84   81   82 2   
    85   81   93 1   
    86   83   84 1   
    87   83   85 1   
    88   83   88 1   
    89   84   90 1   
    90   84   91 1   
    91   84   92 1   
    92   85   89 1   
    93   93   94 1   
    94   93  101 1   
    95   94   95 1   
    96   94   97 1   
    97   94  102 1   
    98   95   96 2   
    99   95  112 1   
   100   97   98 1   
   101   97   99 1   
   102   97  103 1   
   103   98  100 1   
   104   98  104 1   
   105   98  105 1   
   106   99  106 1   
   107   99  107 1   
   108   99  108 1   
   109  100  109 1   
   110  100  110 1   
   111  100  111 1   
   112  112  113 1   
   113  112  119 1   
   114  113  114 1   
   115  113  116 1   
   116  113  120 1   
   117  114  115 2   
   118  114  126 1   
   119  116  117 1   
   120  116  118 1   
   121  116  121 1   
   122  117  123 1   
   123  117  124 1   
   124  117  125 1   
   125  118  122 1   
   126  126  127 1   
   127  126  133 1   
   128  127  128 1   
   129  127  130 1   
   130  127  134 1   
   131  128  129 2   
   132  128  140 1   
   133  130  131 1   
   134  130  132 1   
   135  130  135 1   
   136  131  137 1   
   137  131  138 1   
   138  131  139 1   
   139  132  136 1   
   140  140  141 1   
   141  140  149 1   
   142  141  142 1   
   143  141  144 1   
   144  141  150 1   
   145  142  143 2   
   146  142  162 1   
   147  144  145 1   
   148  144  151 1   
   149  144  152 1   
   150  145  146 1   
   151  145  153 1   
   152  145  154 1   
   153  146  147 1   
   154  146  155 1   
   155  146  156 1   
   156  147  148 1   
   157  147  157 1   
   158  147  158 1   
   159  148  159 1   
   160  148  160 1   
   161  148  161 1   
   162  162  163 1   
   163  162  171 1   
   164  163  164 1   
   165  163  166 1   
   166  163  172 1   
   167  164  165 2   
   168  164  177 1   
   169  166  167 1   
   170  166  173 1   
   171  166  174 1   
   172  167  168 1   
   173  167  175 1   
   174  167  176 1   
   175  168  169 1   
   176  168  170 1   
   177  177  178 1   
   178  177  182 1   
   179  178  179 1   
   180  178  180 1   
   181  178  181 1   
   182  184  185 1   
   183  184  186 1   
   184  187  188 1   
   185  187  189 1   
@<TRIPOS>SUBSTRUCTURE
     1 MOL         1 TEMP              0 ****  ****    0 ROOT
