@<TRIPOS>MOLECULE
MOL
  182   178     1     0     0
SMALL
resp


@<TRIPOS>ATOM
      1 C1          0.8940    4.3220    5.0220 c3        1 MOL     -0.321676
      2 C2          0.4770    3.8700    3.5980 c         1 MOL      0.711570
      3 O1          1.1700    4.0980    2.6630 o         1 MOL     -0.593784
      4 H1          1.9810    4.3430    5.0910 hc        1 MOL      0.081046
      5 H2          0.4980    5.3190    5.2180 hc        1 MOL      0.081046
      6 H3          0.4960    3.6220    5.7570 hc        1 MOL      0.081046
      7 N1         -0.7080    3.3020    3.4220 n         1 MOL     -0.711646
      8 C3         -1.2970    2.8590    2.0990 c3        1 MOL      0.017510
      9 C4         -1.9920    4.0450    1.4070 c         1 MOL      0.675850
     10 O2         -3.2420    4.1210    1.2300 o         1 MOL     -0.533001
     11 C5         -2.3220    1.7490    2.4490 c3        1 MOL      0.065614
     12 C6         -2.9000    1.1000    1.1960 c         1 MOL      0.623997
     13 O3         -4.0130    0.5300    1.3450 o         1 MOL     -0.711709
     14 O4         -2.2020    1.1130    0.1500 o         1 MOL     -0.711709
     15 H4         -1.2030    3.0620    4.2710 hn        1 MOL      0.358009
     16 H5         -0.5490    2.3930    1.4620 h1        1 MOL      0.064756
     17 H6         -3.0820    2.2380    3.0700 hc        1 MOL     -0.009398
     18 H7         -1.9380    0.9860    3.1280 hc        1 MOL     -0.009398
     19 N2         -1.1390    4.9550    0.8680 n         1 MOL     -0.582134
     20 C7         -1.6810    6.1660    0.1620 c3        1 MOL      0.055880
     21 C8         -2.7190    5.8790   -0.9540 c         1 MOL      0.452541
     22 O5         -3.5410    6.7260   -1.2360 o         1 MOL     -0.552709
     23 C9         -0.5010    6.9690   -0.3190 c3        1 MOL     -0.312098
     24 C10         0.2800    7.4660    0.9060 c3        1 MOL      0.312885
     25 C11         1.4600    8.4100    0.5060 c3        1 MOL     -0.046424
     26 C12         2.5660    8.3890    1.6210 c3        1 MOL     -0.083690
     27 N3          1.9920    8.8800    2.8640 n4        1 MOL     -0.270678
     28 H8         -0.1430    4.9010    0.9160 hn        1 MOL      0.374613
     29 H9         -2.1540    6.7550    0.9580 h1        1 MOL      0.079986
     30 H10        -0.9090    7.8130   -0.8900 hc        1 MOL      0.113695
     31 H11         0.1620    6.3310   -0.8940 hc        1 MOL      0.113695
     32 H12         0.7190    6.6430    1.4750 hc        1 MOL     -0.075705
     33 H13        -0.3670    8.0090    1.5960 hc        1 MOL     -0.075705
     34 H14         1.0960    9.4340    0.4080 hc        1 MOL      0.037632
     35 H15         1.8470    8.1240   -0.4710 hc        1 MOL      0.037632
     36 H16         3.4760    8.8740    1.2540 hx        1 MOL      0.130396
     37 H17         2.7830    7.3440    1.8530 hx        1 MOL      0.130396
     38 H18         1.3130    8.2510    3.2740 hn        1 MOL      0.303291
     39 H19         2.5710    9.1060    3.6640 hn        1 MOL      0.303291
     40 H20         1.5230    9.7690    2.7080 hn        1 MOL      0.303291
     41 N4         -2.6910    4.7100   -1.5930 n         1 MOL     -0.216642
     42 C13        -3.5730    4.2930   -2.7050 c3        1 MOL      0.008454
     43 C14        -4.8720    3.5630   -2.1930 c         1 MOL      0.307897
     44 O6         -5.8290    3.4640   -2.9710 o         1 MOL     -0.527123
     45 C15        -2.8950    3.4830   -3.7860 c3        1 MOL     -0.248434
     46 C16        -2.2360    2.2740   -3.1270 c         1 MOL      0.715769
     47 O7         -1.2080    2.3830   -2.4200 o         1 MOL     -0.707142
     48 O8         -2.8010    1.1460   -3.2400 o         1 MOL     -0.707142
     49 H21        -1.9610    4.0430   -1.4090 hn        1 MOL      0.185821
     50 H22        -3.9470    5.2040   -3.2000 h1        1 MOL      0.118180
     51 H23        -2.1970    4.1750   -4.2460 hc        1 MOL      0.071730
     52 H24        -3.6100    3.1440   -4.5430 hc        1 MOL      0.071730
     53 N5         -4.9930    3.3410   -0.9110 n         1 MOL      0.083764
     54 C17        -6.2100    2.9760   -0.2100 c3        1 MOL     -0.202699
     55 C18        -6.7870    1.5570   -0.5700 c         1 MOL      0.501317
     56 O9         -7.9930    1.3780   -0.3840 o         1 MOL     -0.561466
     57 H25        -4.2800    3.6320   -0.2630 hn        1 MOL      0.120173
     58 H26        -6.8330    3.8280   -0.5090 h1        1 MOL      0.098116
     59 H27        -6.1330    3.0060    0.8760 h1        1 MOL      0.098116
     60 N6         -5.9690    0.6320   -0.9920 n         1 MOL     -0.207937
     61 C19        -6.4450   -0.7610   -1.2550 c3        1 MOL      0.020337
     62 C20        -6.5900   -1.6560   -0.0390 c         1 MOL      0.260871
     63 O10        -7.0520   -2.8090   -0.1410 o         1 MOL     -0.488349
     64 C21        -5.7360   -1.4380   -2.4000 c3        1 MOL     -0.152716
     65 C22        -4.4540   -2.2250   -2.1160 c         1 MOL      0.395185
     66 N7         -4.4380   -3.4880   -2.4540 n         1 MOL     -0.529257
     67 O11        -3.3690   -1.7480   -1.7640 o         1 MOL     -0.531612
     68 H28        -4.9860    0.7480   -0.8360 hn        1 MOL      0.093318
     69 H29        -7.4830   -0.8220   -1.5980 h1        1 MOL      0.130081
     70 H30        -5.5160   -0.6150   -3.0790 hc        1 MOL      0.093668
     71 H31        -6.5120   -1.9960   -2.9180 hc        1 MOL      0.093668
     72 H32        -5.2450   -3.8140   -2.9500 hn        1 MOL      0.298336
     73 H33        -3.6120   -4.0490   -2.6280 hn        1 MOL      0.298336
     74 N8         -6.0380   -1.2950    1.0680 n         1 MOL     -0.080888
     75 C23        -5.8660   -2.1280    2.2890 c3        1 MOL     -0.429630
     76 C24        -4.5340   -2.8300    2.5200 c         1 MOL      0.685126
     77 O12        -4.4120   -3.3980    3.6120 o         1 MOL     -0.584823
     78 H34        -5.5570   -0.4110    1.1040 hn        1 MOL      0.250115
     79 H35        -6.6380   -2.8870    2.2150 h1        1 MOL      0.177141
     80 H36        -6.0080   -1.4520    3.1320 h1        1 MOL      0.177141
     81 N9         -3.5960   -2.8290    1.5600 n         1 MOL     -0.461590
     82 C25        -2.2930   -3.5410    1.6360 c3        1 MOL      0.316530
     83 C26        -1.1370   -2.5540    1.2580 c         1 MOL      0.212362
     84 O13        -1.3360   -1.7230    0.3760 o         1 MOL     -0.459073
     85 C27        -2.2710   -4.7330    0.6770 c3        1 MOL     -0.074242
     86 C28        -3.4980   -5.6890    0.9560 ca        1 MOL      0.073031
     87 C29        -4.7560   -5.3470    0.4780 ca        1 MOL     -0.223825
     88 C30        -3.3420   -7.0200    1.4870 ca        1 MOL     -0.223825
     89 C31        -5.8430   -6.1590    0.7100 ca        1 MOL     -0.170735
     90 C32        -4.4010   -7.9270    1.5800 ca        1 MOL     -0.170735
     91 C33        -5.6550   -7.4710    1.2080 ca        1 MOL      0.299274
     92 O14        -6.6950   -8.3010    1.3360 oh        1 MOL     -0.496771
     93 H37        -3.8230   -2.2360    0.7720 hn        1 MOL      0.391305
     94 H38        -2.2220   -3.9100    2.6570 h1        1 MOL      0.014479
     95 H39        -1.2980   -5.2210    0.7230 hc        1 MOL      0.037660
     96 H40        -2.3510   -4.4560   -0.3750 hc        1 MOL      0.037660
     97 H41        -4.8220   -4.4410   -0.1140 ha        1 MOL      0.110744
     98 H42        -2.3290   -7.3520    1.6570 ha        1 MOL      0.110744
     99 H43        -6.8340   -5.8840    0.3780 ha        1 MOL      0.118951
    100 H44        -4.1390   -8.9510    1.8230 ha        1 MOL      0.118951
    101 H45        -6.5450   -9.1310    1.7830 ho        1 MOL      0.372924
    102 N10         0.1160   -2.6660    1.8020 n         1 MOL     -0.247152
    103 C34         1.3370   -2.0790    1.3160 c3        1 MOL     -0.184656
    104 C35         2.4420   -3.1400    1.1360 c         1 MOL      0.627596
    105 O15         2.5940   -4.1450    1.9010 o         1 MOL     -0.558195
    106 C36         1.8020   -0.9010    2.2670 c3        1 MOL     -0.269588
    107 C37         2.1170   -1.4470    3.6890 c3        1 MOL     -0.239470
    108 C38         0.6860    0.1590    2.3020 c3        1 MOL     -0.460400
    109 C39         2.4870   -0.4810    4.7580 c3        1 MOL     -0.147487
    110 H46         0.2710   -3.4490    2.4130 hn        1 MOL      0.244604
    111 H47         1.2100   -1.5370    0.3730 h1        1 MOL      0.038363
    112 H48         2.6550   -0.3550    1.8550 hc        1 MOL      0.161726
    113 H49         3.0020   -2.0650    3.5720 hc        1 MOL      0.137959
    114 H50         1.3200   -2.0680    4.0890 hc        1 MOL      0.137959
    115 H51         1.1650    1.0380    2.7240 hc        1 MOL      0.211246
    116 H52         0.3300    0.3950    1.3030 hc        1 MOL      0.211246
    117 H53        -0.1840   -0.1450    2.9060 hc        1 MOL      0.211246
    118 H54         3.3330    0.1510    4.5340 hc        1 MOL      0.046433
    119 H55         1.6300    0.1940    4.8720 hc        1 MOL      0.046433
    120 H56         2.7030   -1.0560    5.6550 hc        1 MOL      0.046433
    121 N11         3.2050   -2.9400    0.0460 n         1 MOL     -0.514913
    122 C40         4.4090   -3.6200   -0.2910 c3        1 MOL     -0.005023
    123 C41         5.6450   -3.0580    0.2600 c         1 MOL      0.451498
    124 O16         5.7720   -1.8660    0.4870 o         1 MOL     -0.360322
    125 C42         4.5400   -3.6790   -1.8560 c3        1 MOL     -0.045857
    126 O17         4.5290   -2.3810   -2.4610 oh        1 MOL     -0.520142
    127 H57         3.0110   -2.0700   -0.4300 hn        1 MOL      0.473401
    128 H58         4.3280   -4.6520    0.0420 h1        1 MOL      0.072681
    129 H59         3.7330   -4.2620   -2.2990 h1        1 MOL      0.077650
    130 H60         5.5270   -4.1100   -2.0110 h1        1 MOL      0.077650
    131 H61         3.6540   -1.9810   -2.4310 ho        1 MOL      0.372499
    132 N12         6.7000   -3.8590    0.3060 n         1 MOL     -0.399778
    133 C43         8.0830   -3.4530    0.5580 c3        1 MOL      0.099563
    134 C44         8.6580   -2.3890   -0.3310 c         1 MOL      0.443531
    135 O18         9.3940   -1.4380    0.1420 o         1 MOL     -0.507836
    136 C45         8.9930   -4.6250    0.6070 c3        1 MOL     -0.464291
    137 H62         6.4940   -4.8210    0.0520 hn        1 MOL      0.273289
    138 H63         7.9510   -2.9710    1.5260 h1        1 MOL      0.102211
    139 H64         8.8080   -5.1290    1.5650 hc        1 MOL      0.143341
    140 H65         8.7020   -5.2290   -0.2570 hc        1 MOL      0.143341
    141 H66        10.0180   -4.2580    0.5260 hc        1 MOL      0.143341
    142 N13         8.2410   -2.3590   -1.6160 n         1 MOL     -0.378317
    143 C46         8.5210   -1.2000   -2.4540 c3        1 MOL      0.059213
    144 C47         7.8280    0.1360   -1.9890 c         1 MOL      0.433742
    145 O19         8.3930    1.1900   -2.2280 o         1 MOL     -0.509748
    146 C48         8.1100   -1.5630   -3.8300 c3        1 MOL     -0.240399
    147 H67         7.5950   -3.0570   -1.9630 hn        1 MOL      0.291697
    148 H68         9.5970   -1.0780   -2.3070 h1        1 MOL      0.101931
    149 H69         7.0620   -1.8550   -3.7850 hc        1 MOL      0.070155
    150 H70         8.3050   -0.7490   -4.5260 hc        1 MOL      0.070155
    151 H71         8.7360   -2.3820   -4.1900 hc        1 MOL      0.070155
    152 N14         6.5800    0.1170   -1.4820 n         1 MOL     -0.108677
    153 C49         5.9520    1.2810   -0.8210 c3        1 MOL     -0.093843
    154 C50         6.6770    1.6090    0.5250 c         1 MOL      0.466542
    155 O20         7.1490    2.7540    0.6450 o         1 MOL     -0.550238
    156 C51         4.4420    1.0650   -0.4970 c3        1 MOL      0.188816
    157 C52         3.5530    1.0330   -1.7450 c3        1 MOL     -0.046017
    158 C53         2.3010    0.1840   -1.6160 c         1 MOL      0.757323
    159 O21         2.3640   -1.0210   -1.8050 o         1 MOL     -0.735685
    160 O22         1.1930    0.7190   -1.2570 o         1 MOL     -0.735685
    161 H72         6.1420   -0.7910   -1.4040 hn        1 MOL      0.050338
    162 H73         5.9330    2.1660   -1.4460 h1        1 MOL      0.082678
    163 H74         4.1390    1.9310    0.1030 hc        1 MOL     -0.050987
    164 H75         4.3300    0.2070    0.1730 hc        1 MOL     -0.050987
    165 H76         4.1490    0.6480   -2.5730 hc        1 MOL     -0.008187
    166 H77         3.3020    2.0530   -2.0410 hc        1 MOL     -0.008187
    167 N15         6.8050    0.6040    1.3980 n         1 MOL     -0.164368
    168 C54         7.4690    0.7950    2.6970 c3        1 MOL     -0.244320
    169 H78         8.2150    0.0150    2.8410 h1        1 MOL      0.100163
    170 H79         7.9560    1.7710    2.7170 h1        1 MOL      0.100163
    171 H80         6.7290    0.7420    3.4950 h1        1 MOL      0.100163
    172 H81         6.5630   -0.3410    1.1240 hn        1 MOL      0.167878
    173 Ca1        -1.1610   -0.2730   -1.8010 Ca        1 MOL      1.765740
    174 O23        -1.9300   -1.9490   -4.3870 oh        1 MOL     -0.795617
    175 H82        -2.2730   -1.6200   -5.2190 ho        1 MOL      0.390827
    176 H83        -2.2500   -2.8500   -4.3440 ho        1 MOL      0.390827
    177 O24         0.1840   -2.4120   -2.0130 oh        1 MOL     -0.795617
    178 H84         0.2250   -3.3590   -1.8770 ho        1 MOL      0.390827
    179 H85         1.0840   -2.1160   -1.8940 ho        1 MOL      0.390827
    180 O25        -0.0490    0.4310   -4.1990 oh        1 MOL     -0.795617
    181 H86         0.5970    0.0310   -4.7790 ho        1 MOL      0.390827
    182 H87        -0.3260    1.2240   -4.6590 ho        1 MOL      0.390827
@<TRIPOS>BOND
     1    1    2 1   
     2    1    4 1   
     3    1    5 1   
     4    1    6 1   
     5    2    3 2   
     6    2    7 1   
     7    7    8 1   
     8    7   15 1   
     9    8    9 1   
    10    8   11 1   
    11    8   16 1   
    12    9   10 2   
    13    9   19 1   
    14   11   12 1   
    15   11   17 1   
    16   11   18 1   
    17   12   13 1   
    18   12   14 1   
    19   19   20 1   
    20   19   28 1   
    21   20   21 1   
    22   20   23 1   
    23   20   29 1   
    24   21   22 2   
    25   21   41 1   
    26   23   24 1   
    27   23   30 1   
    28   23   31 1   
    29   24   25 1   
    30   24   32 1   
    31   24   33 1   
    32   25   26 1   
    33   25   34 1   
    34   25   35 1   
    35   26   27 1   
    36   26   36 1   
    37   26   37 1   
    38   27   38 1   
    39   27   39 1   
    40   27   40 1   
    41   41   42 1   
    42   41   49 1   
    43   42   43 1   
    44   42   45 1   
    45   42   50 1   
    46   43   44 2   
    47   43   53 1   
    48   45   46 1   
    49   45   51 1   
    50   45   52 1   
    51   46   47 1   
    52   46   48 1   
    53   53   54 1   
    54   53   57 1   
    55   54   55 1   
    56   54   58 1   
    57   54   59 1   
    58   55   56 2   
    59   55   60 1   
    60   60   61 1   
    61   60   68 1   
    62   61   62 1   
    63   61   64 1   
    64   61   69 1   
    65   62   63 2   
    66   62   74 1   
    67   64   65 1   
    68   64   70 1   
    69   64   71 1   
    70   65   66 1   
    71   65   67 2   
    72   66   72 1   
    73   66   73 1   
    74   74   75 1   
    75   74   78 1   
    76   75   76 1   
    77   75   79 1   
    78   75   80 1   
    79   76   77 2   
    80   76   81 1   
    81   81   82 1   
    82   81   93 1   
    83   82   83 1   
    84   82   85 1   
    85   82   94 1   
    86   83   84 2   
    87   83  102 1   
    88   85   86 1   
    89   85   95 1   
    90   85   96 1   
    91   86   87 ar  
    92   86   88 ar  
    93   87   89 ar  
    94   87   97 1   
    95   88   90 ar  
    96   88   98 1   
    97   89   91 ar  
    98   89   99 1   
    99   90   91 ar  
   100   90  100 1   
   101   91   92 1   
   102   92  101 1   
   103  102  103 1   
   104  102  110 1   
   105  103  104 1   
   106  103  106 1   
   107  103  111 1   
   108  104  105 2   
   109  104  121 1   
   110  106  107 1   
   111  106  108 1   
   112  106  112 1   
   113  107  109 1   
   114  107  113 1   
   115  107  114 1   
   116  108  115 1   
   117  108  116 1   
   118  108  117 1   
   119  109  118 1   
   120  109  119 1   
   121  109  120 1   
   122  121  122 1   
   123  121  127 1   
   124  122  123 1   
   125  122  125 1   
   126  122  128 1   
   127  123  124 2   
   128  123  132 1   
   129  125  126 1   
   130  125  129 1   
   131  125  130 1   
   132  126  131 1   
   133  132  133 1   
   134  132  137 1   
   135  133  134 1   
   136  133  136 1   
   137  133  138 1   
   138  134  135 2   
   139  134  142 1   
   140  136  139 1   
   141  136  140 1   
   142  136  141 1   
   143  142  143 1   
   144  142  147 1   
   145  143  144 1   
   146  143  146 1   
   147  143  148 1   
   148  144  145 2   
   149  144  152 1   
   150  146  149 1   
   151  146  150 1   
   152  146  151 1   
   153  152  153 1   
   154  152  161 1   
   155  153  154 1   
   156  153  156 1   
   157  153  162 1   
   158  154  155 2   
   159  154  167 1   
   160  156  157 1   
   161  156  163 1   
   162  156  164 1   
   163  157  158 1   
   164  157  165 1   
   165  157  166 1   
   166  158  159 1   
   167  158  160 1   
   168  167  168 1   
   169  167  172 1   
   170  168  169 1   
   171  168  170 1   
   172  168  171 1   
   173  174  175 1   
   174  174  176 1   
   175  177  178 1   
   176  177  179 1   
   177  180  181 1   
   178  180  182 1   
@<TRIPOS>SUBSTRUCTURE
     1 MOL         1 TEMP              0 ****  ****    0 ROOT
