@<TRIPOS>MOLECULE
MOL
  189   185     1     0     0
SMALL
resp


@<TRIPOS>ATOM
      1 C1         -0.3450    2.7880    6.3120 c3        1 MOL     -0.275277
      2 C2         -0.5640    2.3830    4.7990 c         1 MOL      0.803101
      3 O1          0.3520    2.5840    3.9970 o         1 MOL     -0.648847
      4 H1         -0.8430    2.0630    6.9570 hc        1 MOL      0.065694
      5 H2          0.7220    2.8000    6.5340 hc        1 MOL      0.065694
      6 H3         -0.7650    3.7780    6.4880 hc        1 MOL      0.065694
      7 N1         -1.7370    2.0080    4.3680 n         1 MOL     -0.731553
      8 C3         -2.0000    1.8600    2.8790 c3        1 MOL      0.274291
      9 C4         -1.9650    3.2030    2.1390 c         1 MOL      0.401001
     10 O2         -2.5920    4.1660    2.6020 o         1 MOL     -0.551680
     11 C5         -3.2820    1.0560    2.7070 c3        1 MOL     -0.213365
     12 C6         -3.7730    0.8860    1.2640 c         1 MOL      0.717923
     13 O3         -4.9300    0.4250    1.0470 o         1 MOL     -0.658816
     14 O4         -2.9900    1.0460    0.2870 o         1 MOL     -0.658816
     15 H4         -2.5450    1.9590    4.9730 hn        1 MOL      0.368995
     16 H5         -1.2130    1.2160    2.4960 h1        1 MOL     -0.039230
     17 H6         -4.0410    1.2810    3.4670 hc        1 MOL      0.057024
     18 H7         -2.9550    0.0710    3.0440 hc        1 MOL      0.057024
     19 N2         -1.3690    3.3140    0.9480 n         1 MOL     -0.055705
     20 C7         -1.1100    4.6930    0.3330 c3        1 MOL      0.024159
     21 C8         -2.1690    5.0780   -0.7530 c         1 MOL      0.491548
     22 O5         -2.7830    6.1710   -0.8100 o         1 MOL     -0.549547
     23 C9          0.2810    4.7840   -0.2440 c3        1 MOL     -0.165136
     24 C10         1.4430    4.9490    0.7830 c3        1 MOL      0.055253
     25 C11         1.3820    6.2380    1.5820 c3        1 MOL     -0.174264
     26 C12         2.6030    6.7770    2.3860 c3        1 MOL      0.045530
     27 N3          2.2040    7.9580    3.2410 n4        1 MOL     -0.392581
     28 H8         -0.9700    2.5080    0.5050 hn        1 MOL      0.098162
     29 H9         -1.2210    5.4850    1.0720 h1        1 MOL      0.023486
     30 H10         0.3350    5.5850   -0.9830 hc        1 MOL      0.047379
     31 H11         0.5960    3.9310   -0.8510 hc        1 MOL      0.047379
     32 H12         2.4240    4.9330    0.3210 hc        1 MOL      0.017716
     33 H13         1.4890    4.0510    1.4020 hc        1 MOL      0.017716
     34 H14         0.6090    6.0550    2.3260 hc        1 MOL      0.085269
     35 H15         0.8580    6.9420    0.9400 hc        1 MOL      0.085269
     36 H16         3.4170    7.0060    1.6940 hx        1 MOL      0.094402
     37 H17         2.8970    5.9940    3.0850 hx        1 MOL      0.094402
     38 H18         2.8470    8.0540    4.0120 hn        1 MOL      0.337335
     39 H19         2.2350    8.7720    2.6470 hn        1 MOL      0.337335
     40 H20         1.2670    7.8630    3.6240 hn        1 MOL      0.337335
     41 N4         -2.5980    4.0110   -1.5210 n         1 MOL     -0.386062
     42 C13        -3.4240    4.2260   -2.7430 c3        1 MOL      0.124286
     43 C14        -4.9300    3.7500   -2.5110 c         1 MOL      0.369146
     44 O6         -5.8150    4.2530   -3.2240 o         1 MOL     -0.526807
     45 C15        -2.8110    3.5970   -4.0320 c3        1 MOL     -0.266307
     46 C16        -2.4330    2.1140   -3.9090 c         1 MOL      0.880554
     47 O7         -2.7440    1.4270   -2.9670 o         1 MOL     -0.762005
     48 O8         -1.7330    1.6010   -4.8080 o         1 MOL     -0.762005
     49 H21        -2.2490    3.1020   -1.2820 hn        1 MOL      0.216841
     50 H22        -3.4990    5.2930   -2.9360 h1        1 MOL      0.079223
     51 H23        -1.9190    4.1650   -4.3390 hc        1 MOL      0.058027
     52 H24        -3.4990    3.7420   -4.8530 hc        1 MOL      0.058027
     53 N5         -5.2140    2.8210   -1.5450 n         1 MOL      0.032404
     54 C17        -6.6020    2.5760   -1.0140 c3        1 MOL     -0.312786
     55 C18        -7.1480    1.1780   -1.4680 c         1 MOL      0.678140
     56 O9         -8.2480    1.1910   -2.1010 o         1 MOL     -0.595644
     57 H25        -4.4690    2.3520   -1.0420 hn        1 MOL      0.040313
     58 H26        -7.2180    3.3800   -1.4210 h1        1 MOL      0.118954
     59 H27        -6.4590    2.4600    0.0580 h1        1 MOL      0.118954
     60 N6         -6.5110    0.0360   -1.2440 n         1 MOL     -0.531517
     61 C19        -6.9680   -1.3090   -1.7660 c3        1 MOL      0.241737
     62 C20        -7.0180   -2.3580   -0.5940 c         1 MOL      0.368007
     63 O10        -7.0040   -3.5600   -0.9150 o         1 MOL     -0.498220
     64 C21        -6.0960   -1.8760   -2.9120 c3        1 MOL     -0.303499
     65 C22        -4.6530   -1.8750   -2.5480 c         1 MOL      0.884224
     66 O11        -3.8530   -1.3610   -3.3000 o         1 MOL     -0.750549
     67 O12        -4.2710   -2.2650   -1.4660 o         1 MOL     -0.750549
     68 H28        -5.6440    0.1100   -0.7240 hn        1 MOL      0.210096
     69 H29        -8.0250   -1.2070   -2.0230 h1        1 MOL      0.043588
     70 H30        -6.3230   -1.3610   -3.8460 hc        1 MOL      0.078180
     71 H31        -6.2500   -2.9460   -3.0570 hc        1 MOL      0.078180
     72 N7         -6.9090   -1.8850    0.6430 n         1 MOL     -0.276250
     73 C23        -6.9880   -2.7020    1.8180 c3        1 MOL     -0.129521
     74 C24        -5.8020   -3.6420    2.0080 c         1 MOL      0.531153
     75 O13        -5.8490   -4.6320    2.7110 o         1 MOL     -0.558649
     76 H32        -6.8090   -0.8970    0.8430 hn        1 MOL      0.263539
     77 H33        -7.8760   -3.3210    1.7900 h1        1 MOL      0.094627
     78 H34        -7.0440   -2.1120    2.7340 h1        1 MOL      0.094627
     79 N8         -4.6280   -3.3470    1.3770 n         1 MOL     -0.239424
     80 C25        -3.3470   -4.1510    1.4150 c3        1 MOL     -0.337763
     81 C26        -2.0990   -3.2520    1.3530 c         1 MOL      0.811873
     82 O14        -2.1100   -2.1060    0.8100 o         1 MOL     -0.754036
     83 C27        -3.3390   -5.2450    0.3380 c3        1 MOL      0.464170
     84 C28        -4.2740   -6.3910    0.6030 c3        1 MOL     -0.409058
     85 O15        -3.5660   -4.7100   -0.9820 oh        1 MOL     -0.660618
     86 H35        -4.5450   -2.5480    0.7620 hn        1 MOL      0.194282
     87 H36        -3.2780   -4.5860    2.4040 h1        1 MOL      0.131035
     88 H37        -2.3820   -5.7600    0.2410 h1        1 MOL      0.001651
     89 H38        -3.9720   -3.8440   -0.9180 ho        1 MOL      0.475117
     90 H39        -3.9950   -7.1780   -0.0980 hc        1 MOL      0.101154
     91 H40        -4.0090   -6.8110    1.5680 hc        1 MOL      0.101154
     92 H41        -5.3190   -6.1130    0.5380 hc        1 MOL      0.101154
     93 N9         -0.9880   -3.8010    1.7910 n         1 MOL     -0.679205
     94 C29         0.2180   -3.0070    1.8750 c3        1 MOL      0.283706
     95 C30         1.3120   -3.7490    1.0890 c         1 MOL      0.419150
     96 O16         1.5210   -4.9600    1.1440 o         1 MOL     -0.566058
     97 C31         0.6200   -2.7990    3.3650 c3        1 MOL     -0.005282
     98 C32        -0.4700   -1.8400    3.9560 c3        1 MOL      0.219582
     99 C33         1.9610   -2.1520    3.4980 c3        1 MOL     -0.386640
    100 C34        -0.4940   -1.6030    5.4470 c3        1 MOL     -0.292546
    101 H42        -0.9840   -4.7280    2.1910 hn        1 MOL      0.315107
    102 H43         0.0980   -2.0450    1.3820 h1        1 MOL      0.041719
    103 H44         0.4340   -3.6770    3.9690 hc        1 MOL      0.040983
    104 H45        -1.4600   -2.2120    3.6850 hc        1 MOL     -0.003477
    105 H46        -0.2700   -0.8850    3.4630 hc        1 MOL     -0.003477
    106 H47         2.1540   -1.5640    2.6040 hc        1 MOL      0.089439
    107 H48         2.0440   -1.3410    4.2300 hc        1 MOL      0.089439
    108 H49         2.7070   -2.9340    3.6270 hc        1 MOL      0.089439
    109 H50        -0.3410   -2.4670    6.0840 hc        1 MOL      0.061788
    110 H51         0.2910   -0.8760    5.6280 hc        1 MOL      0.061788
    111 H52        -1.4420   -1.1350    5.7100 hc        1 MOL      0.061788
    112 N10         2.1520   -2.9930    0.4340 n         1 MOL      0.019118
    113 C35         3.2010   -3.4470   -0.5050 c3        1 MOL     -0.113147
    114 C36         4.6160   -2.9410   -0.0660 c         1 MOL      0.345852
    115 O17         4.7790   -2.0930    0.7350 o         1 MOL     -0.338600
    116 C37         2.8860   -2.8310   -1.8990 c3        1 MOL      0.214580
    117 C38         1.5290   -3.3090   -2.3890 c3        1 MOL     -0.278029
    118 O18         2.8430   -1.4030   -1.9160 oh        1 MOL     -0.564375
    119 H53         1.8830   -2.0410    0.6060 hn        1 MOL     -0.043110
    120 H54         3.1400   -4.5200   -0.6480 h1        1 MOL      0.113486
    121 H55         3.6970   -3.1080   -2.5730 h1        1 MOL      0.021131
    122 H56         1.9330   -1.1810   -1.6820 ho        1 MOL      0.329668
    123 H57         1.5690   -4.3980   -2.2830 hc        1 MOL      0.094097
    124 H58         0.7310   -2.9740   -1.7310 hc        1 MOL      0.094097
    125 H59         1.3120   -3.2170   -3.4480 hc        1 MOL      0.094097
    126 N11         5.7300   -3.4560   -0.7160 n         1 MOL     -0.384983
    127 C39         7.1430   -2.8860   -0.4280 c3        1 MOL     -0.043636
    128 C40         7.3130   -1.4120   -0.8260 c         1 MOL      0.481824
    129 O19         8.4130   -0.9430   -0.5970 o         1 MOL     -0.554132
    130 C41         8.3180   -3.8030   -0.9940 c3        1 MOL      0.281678
    131 C42         8.4100   -5.0180   -0.1110 c3        1 MOL     -0.192674
    132 O20         8.0880   -4.2150   -2.3370 oh        1 MOL     -0.619501
    133 H60         5.6260   -4.2320   -1.3640 hn        1 MOL      0.311959
    134 H61         7.3200   -3.0350    0.6430 h1        1 MOL      0.136245
    135 H62         9.2600   -3.2770   -0.8560 h1        1 MOL      0.017173
    136 H63         8.9630   -4.4490   -2.6560 ho        1 MOL      0.402897
    137 H64         9.3390   -5.5720   -0.3080 hc        1 MOL      0.053555
    138 H65         8.4370   -4.7310    0.9370 hc        1 MOL      0.053555
    139 H66         7.5280   -5.6310   -0.2480 hc        1 MOL      0.053555
    140 N12         6.2970   -0.7390   -1.3520 n         1 MOL     -0.503049
    141 C43         6.2900    0.7730   -1.3970 c3        1 MOL      0.092531
    142 C44         5.6870    1.4660   -0.1730 c         1 MOL      0.432198
    143 O21         5.9930    2.6450    0.0750 o         1 MOL     -0.548545
    144 C45         5.5500    1.1720   -2.6630 c3        1 MOL     -0.066309
    145 C46         5.8350    2.6030   -3.1590 c3        1 MOL     -0.073414
    146 C47         7.3250    3.0250   -3.2070 c3        1 MOL     -0.026629
    147 C48         8.2330    2.2420   -4.1370 c3        1 MOL      0.048364
    148 N13         8.9320    1.1170   -3.4850 n4        1 MOL     -0.323058
    149 H67         5.4280   -1.2480   -1.4220 hn        1 MOL      0.286652
    150 H68         7.3330    1.0640   -1.4720 h1        1 MOL      0.053646
    151 H69         4.4800    1.0370   -2.5210 hc        1 MOL      0.050452
    152 H70         5.7300    0.4570   -3.4720 hc        1 MOL      0.050452
    153 H71         5.3060    3.3290   -2.5410 hc        1 MOL      0.058463
    154 H72         5.3450    2.7180   -4.1160 hc        1 MOL      0.058463
    155 H73         7.7070    3.2250   -2.2060 hc        1 MOL      0.047769
    156 H74         7.2600    4.0070   -3.6710 hc        1 MOL      0.047769
    157 H75         8.8670    2.9710   -4.6160 hx        1 MOL      0.071100
    158 H76         7.6450    1.8080   -4.9450 hx        1 MOL      0.071100
    159 H77         9.5230    1.3340   -2.6920 hn        1 MOL      0.316565
    160 H78         8.3510    0.2980   -3.3550 hn        1 MOL      0.316565
    161 H79         9.6390    0.8220   -4.1330 hn        1 MOL      0.316565
    162 N14         4.7910    0.8560    0.5560 n         1 MOL     -0.269478
    163 C49         3.8630    1.4220    1.5580 c3        1 MOL     -0.069158
    164 C50         4.1590    0.8860    2.9690 c         1 MOL      0.487675
    165 O22         3.7950    1.5760    3.9500 o         1 MOL     -0.534937
    166 C51         2.3920    1.2250    1.2120 c3        1 MOL     -0.038002
    167 C52         2.0390    1.3300   -0.2970 c3        1 MOL      0.084256
    168 C53         0.6280    0.7010   -0.5680 c         1 MOL      0.593342
    169 O23         0.5330   -0.5510   -0.5590 o         1 MOL     -0.636948
    170 O24        -0.3110    1.4130   -0.9960 o         1 MOL     -0.636948
    171 H80         4.5690   -0.0630    0.1980 hn        1 MOL      0.281266
    172 H81         4.1020    2.4850    1.6290 h1        1 MOL      0.080773
    173 H82         1.7430    1.8390    1.8210 hc        1 MOL      0.092088
    174 H83         2.1050    0.1850    1.4070 hc        1 MOL      0.092088
    175 H84         2.7850    0.8250   -0.8930 hc        1 MOL     -0.017168
    176 H85         2.0220    2.3660   -0.6460 hc        1 MOL     -0.017168
    177 N15         4.9250   -0.1860    3.0150 n         1 MOL     -0.272429
    178 C54         5.4210   -0.8300    4.3010 c3        1 MOL     -0.195267
    179 H86         4.7310   -1.6180    4.6010 h1        1 MOL      0.104794
    180 H87         6.4090   -1.2580    4.1350 h1        1 MOL      0.104794
    181 H88         5.4770   -0.0780    5.0870 h1        1 MOL      0.104794
    182 H89         5.2550   -0.6120    2.1600 hn        1 MOL      0.178123
    183 Ca1        -2.0070   -0.6320   -1.5650 Ca        1 MOL      1.802897
    184 O25        -0.5050   -0.6270   -3.9770 oh        1 MOL     -0.885908
    185 H90         0.2380   -0.8820   -4.5310 ho        1 MOL      0.404178
    186 H91        -0.9810    0.0150   -4.5070 ho        1 MOL      0.404178
    187 O26        -1.6030   -2.9790   -2.6920 oh        1 MOL     -0.885908
    188 H92        -0.9910   -3.5350   -3.1950 ho        1 MOL      0.404178
    189 H93        -2.3830   -2.9380   -3.2440 ho        1 MOL      0.404178
@<TRIPOS>BOND
     1    1    2 1   
     2    1    4 1   
     3    1    5 1   
     4    1    6 1   
     5    2    3 2   
     6    2    7 1   
     7    7    8 1   
     8    7   15 1   
     9    8    9 1   
    10    8   11 1   
    11    8   16 1   
    12    9   10 2   
    13    9   19 1   
    14   11   12 1   
    15   11   17 1   
    16   11   18 1   
    17   12   13 1   
    18   12   14 1   
    19   19   20 1   
    20   19   28 1   
    21   20   21 1   
    22   20   23 1   
    23   20   29 1   
    24   21   22 2   
    25   21   41 1   
    26   23   24 1   
    27   23   30 1   
    28   23   31 1   
    29   24   25 1   
    30   24   32 1   
    31   24   33 1   
    32   25   26 1   
    33   25   34 1   
    34   25   35 1   
    35   26   27 1   
    36   26   36 1   
    37   26   37 1   
    38   27   38 1   
    39   27   39 1   
    40   27   40 1   
    41   41   42 1   
    42   41   49 1   
    43   42   43 1   
    44   42   45 1   
    45   42   50 1   
    46   43   44 2   
    47   43   53 1   
    48   45   46 1   
    49   45   51 1   
    50   45   52 1   
    51   46   47 1   
    52   46   48 1   
    53   53   54 1   
    54   53   57 1   
    55   54   55 1   
    56   54   58 1   
    57   54   59 1   
    58   55   56 2   
    59   55   60 1   
    60   60   61 1   
    61   60   68 1   
    62   61   62 1   
    63   61   64 1   
    64   61   69 1   
    65   62   63 2   
    66   62   72 1   
    67   64   65 1   
    68   64   70 1   
    69   64   71 1   
    70   65   66 1   
    71   65   67 1   
    72   72   73 1   
    73   72   76 1   
    74   73   74 1   
    75   73   77 1   
    76   73   78 1   
    77   74   75 2   
    78   74   79 1   
    79   79   80 1   
    80   79   86 1   
    81   80   81 1   
    82   80   83 1   
    83   80   87 1   
    84   81   82 2   
    85   81   93 1   
    86   83   84 1   
    87   83   85 1   
    88   83   88 1   
    89   84   90 1   
    90   84   91 1   
    91   84   92 1   
    92   85   89 1   
    93   93   94 1   
    94   93  101 1   
    95   94   95 1   
    96   94   97 1   
    97   94  102 1   
    98   95   96 2   
    99   95  112 1   
   100   97   98 1   
   101   97   99 1   
   102   97  103 1   
   103   98  100 1   
   104   98  104 1   
   105   98  105 1   
   106   99  106 1   
   107   99  107 1   
   108   99  108 1   
   109  100  109 1   
   110  100  110 1   
   111  100  111 1   
   112  112  113 1   
   113  112  119 1   
   114  113  114 1   
   115  113  116 1   
   116  113  120 1   
   117  114  115 2   
   118  114  126 1   
   119  116  117 1   
   120  116  118 1   
   121  116  121 1   
   122  117  123 1   
   123  117  124 1   
   124  117  125 1   
   125  118  122 1   
   126  126  127 1   
   127  126  133 1   
   128  127  128 1   
   129  127  130 1   
   130  127  134 1   
   131  128  129 2   
   132  128  140 1   
   133  130  131 1   
   134  130  132 1   
   135  130  135 1   
   136  131  137 1   
   137  131  138 1   
   138  131  139 1   
   139  132  136 1   
   140  140  141 1   
   141  140  149 1   
   142  141  142 1   
   143  141  144 1   
   144  141  150 1   
   145  142  143 2   
   146  142  162 1   
   147  144  145 1   
   148  144  151 1   
   149  144  152 1   
   150  145  146 1   
   151  145  153 1   
   152  145  154 1   
   153  146  147 1   
   154  146  155 1   
   155  146  156 1   
   156  147  148 1   
   157  147  157 1   
   158  147  158 1   
   159  148  159 1   
   160  148  160 1   
   161  148  161 1   
   162  162  163 1   
   163  162  171 1   
   164  163  164 1   
   165  163  166 1   
   166  163  172 1   
   167  164  165 2   
   168  164  177 1   
   169  166  167 1   
   170  166  173 1   
   171  166  174 1   
   172  167  168 1   
   173  167  175 1   
   174  167  176 1   
   175  168  169 1   
   176  168  170 1   
   177  177  178 1   
   178  177  182 1   
   179  178  179 1   
   180  178  180 1   
   181  178  181 1   
   182  184  185 1   
   183  184  186 1   
   184  187  188 1   
   185  187  189 1   
@<TRIPOS>SUBSTRUCTURE
     1 MOL         1 TEMP              0 ****  ****    0 ROOT
