@<TRIPOS>MOLECULE
MOL
  189   185     1     0     0
SMALL
resp


@<TRIPOS>ATOM
      1 C1         -1.1600    3.6720    5.5220 c3        1 MOL     -0.295770
      2 C2         -1.1090    3.0580    4.0820 c         1 MOL      0.734954
      3 O1         -0.1540    3.2450    3.3080 o         1 MOL     -0.620404
      4 H1         -2.1090    4.1890    5.6630 hc        1 MOL      0.074396
      5 H2         -1.0660    2.8760    6.2600 hc        1 MOL      0.074396
      6 H3         -0.3400    4.3800    5.6450 hc        1 MOL      0.074396
      7 N1         -2.1270    2.2610    3.7300 n         1 MOL     -0.610711
      8 C3         -2.3650    1.8960    2.3420 c3        1 MOL      0.153120
      9 C4         -2.9850    3.1270    1.6100 c         1 MOL      0.565327
     10 O2         -3.8590    3.7650    2.1300 o         1 MOL     -0.572335
     11 C5         -3.4840    0.7790    2.3910 c3        1 MOL     -0.042643
     12 C6         -4.0480    0.2990    1.1100 c         1 MOL      0.612850
     13 O3         -3.4600    0.5570    0.0180 o         1 MOL     -0.619160
     14 O4         -4.9320   -0.6020    1.1980 o         1 MOL     -0.619160
     15 H4         -2.8680    1.9870    4.3630 hn        1 MOL      0.322473
     16 H5         -1.5460    1.4410    1.7880 h1        1 MOL      0.018319
     17 H6         -4.3020    1.1570    3.0090 hc        1 MOL      0.011242
     18 H7         -3.1600   -0.1350    2.8820 hc        1 MOL      0.011242
     19 N2         -2.2800    3.4520    0.4440 n         1 MOL     -0.181042
     20 C7         -2.4460    4.7150   -0.3440 c3        1 MOL      0.046109
     21 C8         -3.4540    4.6010   -1.4540 c         1 MOL      0.309079
     22 O5         -4.1780    5.5900   -1.6170 o         1 MOL     -0.543046
     23 C9         -1.0770    5.0550   -0.8570 c3        1 MOL     -0.285430
     24 C10        -0.1100    5.3730    0.2860 c3        1 MOL      0.174345
     25 C11        -0.5110    6.4430    1.3220 c3        1 MOL     -0.223098
     26 C12        -1.1720    7.6550    0.6470 c3        1 MOL      0.325579
     27 N3         -1.4650    8.6230    1.7530 n4        1 MOL     -0.552243
     28 H8         -1.7880    2.6830    0.0180 hn        1 MOL      0.133448
     29 H9         -2.8250    5.4660    0.3470 h1        1 MOL      0.062303
     30 H10        -1.2730    5.9630   -1.4240 hc        1 MOL      0.076388
     31 H11        -0.7410    4.2070   -1.4380 hc        1 MOL      0.076388
     32 H12         0.7580    5.7790   -0.2350 hc        1 MOL      0.014397
     33 H13         0.0810    4.4290    0.7870 hc        1 MOL      0.014397
     34 H14         0.4380    6.6950    1.7880 hc        1 MOL      0.055066
     35 H15        -1.2450    5.9950    2.0020 hc        1 MOL      0.055066
     36 H16        -2.0810    7.3880    0.1100 hx        1 MOL      0.013795
     37 H17        -0.4690    8.1440   -0.0300 hx        1 MOL      0.013795
     38 H18        -2.1100    8.1840    2.3960 hn        1 MOL      0.363097
     39 H19        -0.6200    8.9460    2.1840 hn        1 MOL      0.363097
     40 H20        -1.9150    9.4660    1.4330 hn        1 MOL      0.363097
     41 N4         -3.4060    3.5830   -2.3280 n         1 MOL     -0.127056
     42 C13        -4.4380    3.3350   -3.3900 c3        1 MOL      0.038219
     43 C14        -5.6390    2.5440   -2.7920 c         1 MOL      0.492797
     44 O6         -6.6570    2.4450   -3.4090 o         1 MOL     -0.505235
     45 C15        -3.8000    2.4910   -4.5370 c3        1 MOL     -0.196784
     46 C16        -2.9860    1.2490   -4.0980 c         1 MOL      0.705783
     47 O7         -2.4190    0.5750   -5.0110 o         1 MOL     -0.664875
     48 O8         -2.9570    0.9630   -2.8460 o         1 MOL     -0.664875
     49 H21        -2.8900    2.7480   -2.1110 hn        1 MOL      0.106696
     50 H22        -4.9400    4.1940   -3.8350 h1        1 MOL      0.062316
     51 H23        -3.1240    3.1930   -5.0300 hc        1 MOL      0.056554
     52 H24        -4.5800    2.1620   -5.2260 hc        1 MOL      0.056554
     53 N5         -5.5190    2.0240   -1.5700 n         1 MOL     -0.205206
     54 C17        -6.6410    1.4180   -0.8540 c3        1 MOL     -0.105962
     55 C18        -7.0910    0.0840   -1.4270 c         1 MOL      0.469741
     56 O9         -8.1250   -0.0020   -2.1050 o         1 MOL     -0.545619
     57 H25        -4.6630    1.9190   -1.0350 hn        1 MOL      0.142527
     58 H26        -7.5110    2.0710   -0.9040 h1        1 MOL      0.076398
     59 H27        -6.4580    1.4280    0.2160 h1        1 MOL      0.076398
     60 N6         -6.3700   -1.0080   -1.2800 n         1 MOL      0.068344
     61 C19        -6.7250   -2.3590   -1.6350 c3        1 MOL     -0.087934
     62 C20        -6.9560   -3.3320   -0.4790 c         1 MOL      0.397597
     63 O10        -7.2730   -4.5060   -0.6830 o         1 MOL     -0.476141
     64 C21        -5.6420   -3.0040   -2.5990 c3        1 MOL     -0.147836
     65 C22        -4.2070   -2.5280   -2.3650 c         1 MOL      0.507938
     66 O11        -3.6830   -1.7400   -3.2070 o         1 MOL     -0.602103
     67 O12        -3.5570   -2.9040   -1.3960 o         1 MOL     -0.602103
     68 H28        -5.6960   -0.8750   -0.5320 hn        1 MOL     -0.134026
     69 H29        -7.6420   -2.3420   -2.2350 h1        1 MOL      0.118891
     70 H30        -5.9810   -2.7430   -3.6050 hc        1 MOL      0.069534
     71 H31        -5.5750   -4.0830   -2.5050 hc        1 MOL      0.069534
     72 N7         -6.7020   -2.8270    0.7790 n         1 MOL     -0.354027
     73 C23        -6.6160   -3.7440    1.9550 c3        1 MOL     -0.085583
     74 C24        -5.1810   -4.3830    2.1720 c         1 MOL      0.622337
     75 O13        -5.0630   -5.4380    2.8470 o         1 MOL     -0.594645
     76 H32        -6.3860   -1.8780    0.9340 hn        1 MOL      0.266969
     77 H33        -7.3180   -4.5700    1.8660 h1        1 MOL      0.083445
     78 H34        -6.7260   -3.2340    2.9130 h1        1 MOL      0.083445
     79 N8         -4.1000   -3.7730    1.6450 n         1 MOL     -0.577033
     80 C25        -2.7270   -4.2670    1.7200 c3        1 MOL      0.030080
     81 C26        -1.6880   -3.1910    1.5520 c         1 MOL      0.508013
     82 O14        -1.8950   -2.3160    0.7410 o         1 MOL     -0.564062
     83 C27        -2.4820   -5.3790    0.7120 c3        1 MOL      0.492171
     84 C28        -2.3080   -6.7190    1.3840 c3        1 MOL     -0.329091
     85 O15        -3.4510   -5.5060   -0.2700 oh        1 MOL     -0.602878
     86 H35        -4.2250   -2.9990    0.9940 hn        1 MOL      0.437385
     87 H36        -2.5870   -4.6140    2.7410 h1        1 MOL      0.074284
     88 H37        -1.5290   -5.2550    0.2110 h1        1 MOL     -0.063734
     89 H38        -3.4650   -4.6860   -0.7700 ho        1 MOL      0.383963
     90 H39        -3.1770   -6.9900    1.9890 hc        1 MOL      0.072359
     91 H40        -1.9280   -7.5250    0.7530 hc        1 MOL      0.072359
     92 H41        -1.6610   -6.5860    2.2550 hc        1 MOL      0.072359
     93 N9         -0.5340   -3.2570    2.2620 n         1 MOL     -0.514210
     94 C29         0.5420   -2.2490    2.2410 c3        1 MOL      0.233786
     95 C30         1.7880   -2.8420    1.5490 c         1 MOL      0.449267
     96 O16         2.1170   -3.8990    1.9560 o         1 MOL     -0.554103
     97 C31         0.9860   -1.7820    3.6930 c3        1 MOL      0.086568
     98 C32        -0.2390   -1.4880    4.5620 c3        1 MOL      0.287269
     99 C33         1.9570   -0.5240    3.7150 c3        1 MOL     -0.554046
    100 C34         0.0990   -1.2500    6.0260 c3        1 MOL     -0.341207
    101 H42        -0.3600   -4.0180    2.9070 hn        1 MOL      0.272388
    102 H43         0.2520   -1.4120    1.6050 h1        1 MOL      0.000563
    103 H44         1.4680   -2.6160    4.2130 hc        1 MOL      0.001324
    104 H45        -0.9010   -2.3480    4.5090 hc        1 MOL     -0.068578
    105 H46        -0.8390   -0.6750    4.1410 hc        1 MOL     -0.068578
    106 H47         2.7050   -0.3980    4.4970 hc        1 MOL      0.123834
    107 H48         2.6110   -0.5750    2.8510 hc        1 MOL      0.123834
    108 H49         1.3720    0.3920    3.7460 hc        1 MOL      0.123834
    109 H50        -0.8080   -1.0390    6.5890 hc        1 MOL      0.078783
    110 H51         0.5930   -2.1260    6.4230 hc        1 MOL      0.078783
    111 H52         0.7240   -0.3510    6.0940 hc        1 MOL      0.078783
    112 N10         2.3920   -2.1620    0.5550 n         1 MOL     -0.096359
    113 C35         3.6170   -2.5320   -0.1860 c3        1 MOL     -0.017522
    114 C36         4.9650   -2.1370    0.4510 c         1 MOL      0.389081
    115 O17         4.8910   -1.2100    1.3260 o         1 MOL     -0.372852
    116 C37         3.6840   -2.1810   -1.6740 c3        1 MOL     -0.035502
    117 C38         2.3250   -2.3810   -2.2760 c3        1 MOL     -0.245084
    118 O18         4.0620   -0.8500   -1.8150 oh        1 MOL     -0.273679
    119 H53         1.8780   -1.3620    0.2280 hn        1 MOL      0.088060
    120 H54         3.5960   -3.6250   -0.2640 h1        1 MOL      0.069649
    121 H55         4.4430   -2.7870   -2.1780 h1        1 MOL      0.047737
    122 H56         3.8680   -0.4380   -2.6630 ho        1 MOL      0.333980
    123 H57         2.4710   -2.3070   -3.3550 hc        1 MOL      0.092329
    124 H58         1.9830   -3.3930   -2.0900 hc        1 MOL      0.092329
    125 H59         1.5450   -1.6890   -1.9790 hc        1 MOL      0.092329
    126 N11         6.1650   -2.6250    0.0080 n         1 MOL     -0.423705
    127 C39         7.5050   -2.1260    0.4330 c3        1 MOL      0.031213
    128 C40         7.5970   -0.5990    0.4140 c         1 MOL      0.345998
    129 O19         8.4080   -0.1200    1.1660 o         1 MOL     -0.511669
    130 C41         8.6350   -2.6120   -0.4430 c3        1 MOL      0.164282
    131 C42         8.9080   -4.1270   -0.4640 c3        1 MOL     -0.464439
    132 O20         8.4200   -2.2960   -1.7850 oh        1 MOL     -0.543473
    133 H60         6.1140   -3.3320   -0.7190 hn        1 MOL      0.302984
    134 H61         7.6820   -2.4550    1.4510 h1        1 MOL      0.119189
    135 H62         9.5250   -2.1010   -0.0850 h1        1 MOL      0.052058
    136 H63         9.2580   -2.6260   -2.1120 ho        1 MOL      0.362518
    137 H64         9.2640   -4.4810    0.4990 hc        1 MOL      0.139154
    138 H65         7.9710   -4.5820   -0.7760 hc        1 MOL      0.139154
    139 H66         9.7000   -4.3200   -1.1970 hc        1 MOL      0.139154
    140 N12         6.9410   -0.0150   -0.6170 n         1 MOL      0.060639
    141 C43         6.9570    1.4130   -0.9560 c3        1 MOL      0.022036
    142 C44         5.9920    2.2470   -0.0950 c         1 MOL      0.362931
    143 O21         6.4640    3.2580    0.4590 o         1 MOL     -0.501990
    144 C45         6.6360    1.6510   -2.4450 c3        1 MOL     -0.127564
    145 C46         7.4010    0.6840   -3.3990 c3        1 MOL      0.026364
    146 C47         8.9400    0.4970   -3.1220 c3        1 MOL      0.106846
    147 C48         9.5480   -0.3280   -4.2950 c3        1 MOL     -0.023086
    148 N13        10.9870   -0.6760   -4.0920 n4        1 MOL     -0.483431
    149 H67         6.3060   -0.6160   -1.1360 hn        1 MOL      0.081824
    150 H68         7.9470    1.8460   -0.7910 h1        1 MOL      0.037721
    151 H69         6.9360    2.6880   -2.5820 hc        1 MOL      0.068700
    152 H70         5.5570    1.6640   -2.5810 hc        1 MOL      0.068700
    153 H71         7.3030    1.1300   -4.3940 hc        1 MOL     -0.025933
    154 H72         6.8530   -0.2540   -3.3660 hc        1 MOL     -0.025933
    155 H73         9.0930   -0.1130   -2.2320 hc        1 MOL      0.001048
    156 H74         9.3980    1.4820   -3.0110 hc        1 MOL      0.001048
    157 H75         9.4190    0.2830   -5.1820 hx        1 MOL      0.099648
    158 H76         9.0180   -1.2500   -4.5220 hx        1 MOL      0.099648
    159 H77        11.0750   -1.1960   -3.2290 hn        1 MOL      0.340944
    160 H78        11.3990   -1.1900   -4.8610 hn        1 MOL      0.340944
    161 H79        11.4860    0.2030   -4.1440 hn        1 MOL      0.340944
    162 N14         4.7670    1.7610    0.1590 n         1 MOL     -0.197781
    163 C49         3.7760    2.3280    1.0790 c3        1 MOL     -0.030242
    164 C50         4.2770    2.2110    2.5840 c         1 MOL      0.404872
    165 O22         4.1230    3.1850    3.3260 o         1 MOL     -0.547204
    166 C51         2.4340    1.5870    0.9110 c3        1 MOL     -0.125809
    167 C52         1.6840    1.8960   -0.4390 c3        1 MOL      0.042582
    168 C53         0.4760    1.0540   -0.5960 c         1 MOL      0.615326
    169 O23         0.4630   -0.1990   -0.4740 o         1 MOL     -0.655988
    170 O24        -0.5670    1.5930   -0.9690 o         1 MOL     -0.655988
    171 H80         4.5790    0.8690   -0.2810 hn        1 MOL      0.070426
    172 H81         3.5600    3.3770    0.8830 h1        1 MOL      0.072128
    173 H82         1.9100    1.8590    1.8210 hc        1 MOL      0.115181
    174 H83         2.6620    0.5190    0.9810 hc        1 MOL      0.115181
    175 H84         2.3340    1.6980   -1.2900 hc        1 MOL     -0.031227
    176 H85         1.3660    2.9310   -0.4480 hc        1 MOL     -0.031227
    177 N15         5.0170    1.1880    2.9460 n         1 MOL      0.060336
    178 C54         5.7420    1.0770    4.2000 c3        1 MOL     -0.384964
    179 H86         6.5060    0.3050    4.1110 h1        1 MOL      0.130154
    180 H87         6.2160    2.0310    4.4320 h1        1 MOL      0.130154
    181 H88         5.0490    0.8120    4.9990 h1        1 MOL      0.130154
    182 H89         5.1630    0.4890    2.2270 hn        1 MOL      0.081478
    183 Ca1        -1.9280   -0.8560   -1.4240 Ca        1 MOL      1.667505
    184 O25        -0.5150   -0.6820   -3.6740 oh        1 MOL     -0.818232
    185 H90        -1.1830   -0.2280   -4.1890 ho        1 MOL      0.377215
    186 H91         0.2930   -0.2100   -3.8750 ho        1 MOL      0.377215
    187 O26        -0.8910   -3.2770   -2.0190 oh        1 MOL     -0.818232
    188 H92        -0.7430   -3.4780   -2.9410 ho        1 MOL      0.377215
    189 H93        -1.7890   -3.5590   -1.8440 ho        1 MOL      0.377215
@<TRIPOS>BOND
     1    1    2 1   
     2    1    4 1   
     3    1    5 1   
     4    1    6 1   
     5    2    3 2   
     6    2    7 1   
     7    7    8 1   
     8    7   15 1   
     9    8    9 1   
    10    8   11 1   
    11    8   16 1   
    12    9   10 2   
    13    9   19 1   
    14   11   12 1   
    15   11   17 1   
    16   11   18 1   
    17   12   13 1   
    18   12   14 1   
    19   19   20 1   
    20   19   28 1   
    21   20   21 1   
    22   20   23 1   
    23   20   29 1   
    24   21   22 2   
    25   21   41 1   
    26   23   24 1   
    27   23   30 1   
    28   23   31 1   
    29   24   25 1   
    30   24   32 1   
    31   24   33 1   
    32   25   26 1   
    33   25   34 1   
    34   25   35 1   
    35   26   27 1   
    36   26   36 1   
    37   26   37 1   
    38   27   38 1   
    39   27   39 1   
    40   27   40 1   
    41   41   42 1   
    42   41   49 1   
    43   42   43 1   
    44   42   45 1   
    45   42   50 1   
    46   43   44 2   
    47   43   53 1   
    48   45   46 1   
    49   45   51 1   
    50   45   52 1   
    51   46   47 1   
    52   46   48 1   
    53   53   54 1   
    54   53   57 1   
    55   54   55 1   
    56   54   58 1   
    57   54   59 1   
    58   55   56 2   
    59   55   60 1   
    60   60   61 1   
    61   60   68 1   
    62   61   62 1   
    63   61   64 1   
    64   61   69 1   
    65   62   63 2   
    66   62   72 1   
    67   64   65 1   
    68   64   70 1   
    69   64   71 1   
    70   65   66 1   
    71   65   67 1   
    72   72   73 1   
    73   72   76 1   
    74   73   74 1   
    75   73   77 1   
    76   73   78 1   
    77   74   75 2   
    78   74   79 1   
    79   79   80 1   
    80   79   86 1   
    81   80   81 1   
    82   80   83 1   
    83   80   87 1   
    84   81   82 2   
    85   81   93 1   
    86   83   84 1   
    87   83   85 1   
    88   83   88 1   
    89   84   90 1   
    90   84   91 1   
    91   84   92 1   
    92   85   89 1   
    93   93   94 1   
    94   93  101 1   
    95   94   95 1   
    96   94   97 1   
    97   94  102 1   
    98   95   96 2   
    99   95  112 1   
   100   97   98 1   
   101   97   99 1   
   102   97  103 1   
   103   98  100 1   
   104   98  104 1   
   105   98  105 1   
   106   99  106 1   
   107   99  107 1   
   108   99  108 1   
   109  100  109 1   
   110  100  110 1   
   111  100  111 1   
   112  112  113 1   
   113  112  119 1   
   114  113  114 1   
   115  113  116 1   
   116  113  120 1   
   117  114  115 2   
   118  114  126 1   
   119  116  117 1   
   120  116  118 1   
   121  116  121 1   
   122  117  123 1   
   123  117  124 1   
   124  117  125 1   
   125  118  122 1   
   126  126  127 1   
   127  126  133 1   
   128  127  128 1   
   129  127  130 1   
   130  127  134 1   
   131  128  129 2   
   132  128  140 1   
   133  130  131 1   
   134  130  132 1   
   135  130  135 1   
   136  131  137 1   
   137  131  138 1   
   138  131  139 1   
   139  132  136 1   
   140  140  141 1   
   141  140  149 1   
   142  141  142 1   
   143  141  144 1   
   144  141  150 1   
   145  142  143 2   
   146  142  162 1   
   147  144  145 1   
   148  144  151 1   
   149  144  152 1   
   150  145  146 1   
   151  145  153 1   
   152  145  154 1   
   153  146  147 1   
   154  146  155 1   
   155  146  156 1   
   156  147  148 1   
   157  147  157 1   
   158  147  158 1   
   159  148  159 1   
   160  148  160 1   
   161  148  161 1   
   162  162  163 1   
   163  162  171 1   
   164  163  164 1   
   165  163  166 1   
   166  163  172 1   
   167  164  165 2   
   168  164  177 1   
   169  166  167 1   
   170  166  173 1   
   171  166  174 1   
   172  167  168 1   
   173  167  175 1   
   174  167  176 1   
   175  168  169 1   
   176  168  170 1   
   177  177  178 1   
   178  177  182 1   
   179  178  179 1   
   180  178  180 1   
   181  178  181 1   
   182  184  185 1   
   183  184  186 1   
   184  187  188 1   
   185  187  189 1   
@<TRIPOS>SUBSTRUCTURE
     1 MOL         1 TEMP              0 ****  ****    0 ROOT
