@<TRIPOS>MOLECULE
MOL
  175   173     1     0     0
SMALL
resp


@<TRIPOS>ATOM
      1 C1          1.0680    3.6080    5.5270 c3        1 MOL     -0.420015
      2 C2          0.4190    3.6460    4.1410 c         1 MOL      0.692323
      3 O1          1.0880    3.9830    3.1350 o         1 MOL     -0.525224
      4 H1          0.3280    3.8760    6.2810 hc        1 MOL      0.101707
      5 H2          1.4430    2.6050    5.7260 hc        1 MOL      0.101707
      6 H3          1.8930    4.3190    5.5610 hc        1 MOL      0.101707
      7 N1         -0.8830    3.4460    4.0920 n         1 MOL     -0.538678
      8 C3         -1.6510    3.2730    2.8670 c3        1 MOL      0.085885
      9 C4         -1.6570    4.4990    1.9780 c         1 MOL      0.667993
     10 O2         -1.4100    5.6060    2.4780 o         1 MOL     -0.589392
     11 C5         -3.0560    2.8580    3.1700 c3        1 MOL     -0.330848
     12 C6         -3.9210    2.6130    1.9630 c         1 MOL      0.689875
     13 O3         -3.3950    2.1050    0.9680 o         1 MOL     -0.673426
     14 O4         -5.2080    2.6960    2.0630 o         1 MOL     -0.673426
     15 H4         -1.3430    3.2530    4.9680 hn        1 MOL      0.301180
     16 H5         -1.1290    2.5440    2.2560 h1        1 MOL     -0.007908
     17 H6         -3.4540    3.6300    3.8350 hc        1 MOL      0.072221
     18 H7         -3.0550    1.9060    3.6970 hc        1 MOL      0.072221
     19 N2         -1.8380    4.3690    0.6830 n         1 MOL     -0.492786
     20 C7         -2.1550    5.5400   -0.2370 c3        1 MOL      0.126428
     21 C8         -3.0590    5.2760   -1.4410 c         1 MOL      0.542736
     22 O5         -3.0810    6.1100   -2.3750 o         1 MOL     -0.563287
     23 C9         -0.7840    6.0840   -0.7300 c3        1 MOL     -0.188201
     24 H8         -1.9940    3.4030    0.4290 hn        1 MOL      0.326890
     25 H9         -2.6460    6.2820    0.3850 h1        1 MOL      0.030107
     26 H10        -0.9110    6.8480   -1.4900 hc        1 MOL      0.055444
     27 H11        -0.0860    6.4660    0.0080 hc        1 MOL      0.055444
     28 H12        -0.2480    5.2630   -1.2110 hc        1 MOL      0.055444
     29 N3         -3.7740    4.1510   -1.4650 n         1 MOL     -0.462293
     30 C10        -4.5890    3.7220   -2.6630 c3        1 MOL      0.092401
     31 C11        -5.9800    3.0670   -2.3010 c         1 MOL      0.309859
     32 O6         -6.7340    2.9850   -3.2660 o         1 MOL     -0.536853
     33 C12        -3.7910    2.5860   -3.4230 c3        1 MOL     -0.077906
     34 C13        -3.2070    1.5570   -2.4560 c         1 MOL      0.718449
     35 O7         -2.0680    1.0980   -2.5910 o         1 MOL     -0.727308
     36 O8         -3.9450    0.8650   -1.6970 o         1 MOL     -0.727308
     37 H13        -3.8130    3.5970   -0.6270 hn        1 MOL      0.240330
     38 H14        -4.7190    4.5050   -3.3960 h1        1 MOL      0.083121
     39 H15        -3.0200    3.1080   -3.9880 hc        1 MOL      0.036970
     40 H16        -4.4390    2.1030   -4.1600 hc        1 MOL      0.036970
     41 N4         -6.2360    2.5290   -1.1290 n         1 MOL     -0.054374
     42 C14        -7.4950    1.8600   -0.7640 c3        1 MOL     -0.366582
     43 C15        -7.5530    0.4130   -1.1310 c         1 MOL      0.636778
     44 O9         -8.6390   -0.1410   -1.0620 o         1 MOL     -0.637509
     45 H17        -5.5640    2.5630   -0.3770 hn        1 MOL      0.137954
     46 H18        -8.3030    2.3120   -1.3310 h1        1 MOL      0.156291
     47 H19        -7.6920    1.8750    0.3090 h1        1 MOL      0.156291
     48 N5         -6.4860   -0.3420   -1.4910 n         1 MOL     -0.259394
     49 C16        -6.5250   -1.7630   -1.9390 c3        1 MOL      0.023848
     50 C17        -6.4370   -2.7840   -0.8040 c         1 MOL      0.426433
     51 O10        -6.5190   -3.9720   -1.0610 o         1 MOL     -0.523197
     52 C18        -5.4000   -2.0200   -3.0190 c3        1 MOL     -0.331830
     53 C19        -3.9590   -2.0550   -2.4120 c         1 MOL      0.736684
     54 N6         -2.9810   -2.0820   -3.2370 n         1 MOL     -0.546503
     55 O11        -3.6740   -2.1990   -1.1860 o         1 MOL     -0.750513
     56 H20        -5.6310    0.1830   -1.5550 hn        1 MOL      0.181773
     57 H21        -7.5190   -1.9550   -2.3360 h1        1 MOL      0.098252
     58 H22        -5.4530   -1.2730   -3.8010 hc        1 MOL      0.101887
     59 H23        -5.5180   -3.0270   -3.4200 hc        1 MOL      0.101887
     60 H24        -3.1510   -1.9880   -4.2350 hn        1 MOL      0.293950
     61 H25        -2.0220   -2.1590   -2.9270 hn        1 MOL      0.293950
     62 N7         -6.2610   -2.3530    0.4330 n         1 MOL     -0.163089
     63 C20        -6.2780   -3.2070    1.5630 c3        1 MOL     -0.173212
     64 C21        -5.0980   -4.1570    1.6660 c         1 MOL      0.488793
     65 O12        -5.2220   -5.1910    2.3490 o         1 MOL     -0.604006
     66 H26        -6.2570   -1.3510    0.5050 hn        1 MOL      0.173201
     67 H27        -7.2380   -3.7220    1.5740 h1        1 MOL      0.083755
     68 H28        -6.1450   -2.5520    2.4250 h1        1 MOL      0.083755
     69 N8         -3.9700   -3.9000    1.0270 n         1 MOL     -0.114855
     70 C22        -2.6930   -4.6400    1.0130 c3        1 MOL     -0.277329
     71 C23        -1.5860   -3.6820    1.3080 c         1 MOL      0.353491
     72 O13        -1.6030   -2.4930    0.8860 o         1 MOL     -0.255425
     73 C24        -2.3820   -5.3670   -0.3430 c3        1 MOL      0.551104
     74 C25        -3.4790   -6.4740   -0.5520 c3        1 MOL     -0.390534
     75 O14        -2.4510   -4.6140   -1.4810 oh        1 MOL     -0.599191
     76 H29        -4.0460   -3.1610    0.3390 hn        1 MOL      0.343518
     77 H30        -2.6680   -5.3530    1.8360 h1        1 MOL      0.106757
     78 H31        -1.4630   -5.9570   -0.3210 h1        1 MOL     -0.054978
     79 H32        -1.8270   -3.9010   -1.3620 ho        1 MOL      0.353844
     80 H33        -4.4420   -6.1850   -0.1370 hc        1 MOL      0.088805
     81 H34        -3.6490   -6.6120   -1.6270 hc        1 MOL      0.088805
     82 H35        -3.1900   -7.4000   -0.0610 hc        1 MOL      0.088805
     83 N9         -0.4900   -4.0820    1.9230 n         1 MOL     -0.411236
     84 C26         0.7120   -3.1750    1.8990 c3        1 MOL     -0.074905
     85 C27         1.5270   -3.4050    0.5880 c         1 MOL      0.465337
     86 O15         1.8150   -4.5530    0.2550 o         1 MOL     -0.562180
     87 C28         1.6750   -3.5930    3.0820 c3        1 MOL      0.085385
     88 C29         0.8840   -3.0820    4.3860 c3        1 MOL      0.082656
     89 C30         2.9700   -2.8230    3.1040 c3        1 MOL     -0.149737
     90 C31         1.7370   -3.5010    5.6090 c3        1 MOL     -0.120957
     91 H36        -0.4940   -4.9470    2.4490 hn        1 MOL      0.290766
     92 H37         0.4450   -2.1220    1.9840 h1        1 MOL      0.080745
     93 H38         1.7960   -4.6810    3.1420 hc        1 MOL      0.025638
     94 H39        -0.1080   -3.5370    4.4140 hc        1 MOL     -0.021510
     95 H40         0.7290   -1.9960    4.3780 hc        1 MOL     -0.021510
     96 H41         3.5540   -3.0670    2.2160 hc        1 MOL      0.030162
     97 H42         2.8640   -1.7410    3.2080 hc        1 MOL      0.030162
     98 H43         3.5930   -3.1890    3.9260 hc        1 MOL      0.030162
     99 H44         2.5790   -2.8220    5.7790 hc        1 MOL      0.018912
    100 H45         1.1780   -3.5370    6.5380 hc        1 MOL      0.018912
    101 H46         2.0070   -4.5480    5.5800 hc        1 MOL      0.018912
    102 N10         1.7980   -2.2660   -0.1320 n         1 MOL     -0.248248
    103 C32         2.5190   -2.0960   -1.3940 c3        1 MOL      0.054468
    104 C33         3.9290   -1.4100   -1.1910 c         1 MOL      0.514644
    105 O16         4.2230   -0.8010   -0.1600 o         1 MOL     -0.412763
    106 C34         1.6830   -1.3070   -2.4190 c3        1 MOL     -0.299411
    107 C35         0.2000   -1.7300   -2.6240 c         1 MOL      0.796980
    108 O17        -0.5750   -1.7280   -1.6900 o         1 MOL     -0.704920
    109 O18        -0.1960   -2.0010   -3.8120 o         1 MOL     -0.704920
    110 H47         1.4700   -1.4700    0.3850 hn        1 MOL      0.262840
    111 H48         2.7080   -3.0580   -1.8620 h1        1 MOL      0.058106
    112 H49         2.1120   -1.1430   -3.4130 hc        1 MOL      0.070783
    113 H50         1.6440   -0.3120   -1.9900 hc        1 MOL      0.070783
    114 N11         4.8960   -1.6120   -2.1480 n         1 MOL     -0.698970
    115 C36         6.2800   -1.3880   -1.7630 c3        1 MOL      0.312015
    116 C37         6.6440    0.0510   -1.2580 c         1 MOL      0.189047
    117 O19         7.3820    0.2190   -0.2870 o         1 MOL     -0.475313
    118 C38         7.2980   -1.8630   -2.8450 c3        1 MOL     -0.226678
    119 C39         8.7210   -1.6320   -2.3350 ca        1 MOL     -0.022394
    120 C40         9.2570   -2.4080   -1.2700 ca        1 MOL     -0.067917
    121 C41         9.4780   -0.6060   -2.8500 ca        1 MOL     -0.067917
    122 C42        10.5940   -2.2230   -0.8870 ca        1 MOL     -0.132157
    123 C43        10.8480   -0.5050   -2.5520 ca        1 MOL     -0.132157
    124 C44        11.4140   -1.2620   -1.5400 ca        1 MOL     -0.114989
    125 H51         4.6490   -1.8660   -3.0950 hn        1 MOL      0.368522
    126 H52         6.4580   -2.0500   -0.9160 h1        1 MOL      0.092405
    127 H53         7.1410   -1.2850   -3.7560 hc        1 MOL      0.086479
    128 H54         7.2110   -2.9290   -3.0570 hc        1 MOL      0.086479
    129 H55         8.6970   -3.1610   -0.7330 ha        1 MOL      0.091624
    130 H56         9.0570    0.0190   -3.6200 ha        1 MOL      0.091624
    131 H57        11.0390   -2.8760   -0.1510 ha        1 MOL      0.104582
    132 H58        11.4110    0.2630   -3.0560 ha        1 MOL      0.104582
    133 H59        12.4350   -1.0280   -1.2630 ha        1 MOL      0.108486
    134 N12         6.0380    1.1340   -1.7810 n         1 MOL      0.354423
    135 C45         6.2420    2.4750   -1.2820 c3        1 MOL     -0.318931
    136 C46         5.3580    2.8830   -0.0630 c         1 MOL      0.556291
    137 O20         5.3110    4.0690    0.3980 o         1 MOL     -0.555141
    138 C47         6.0510    3.4350   -2.4710 c3        1 MOL     -0.195186
    139 C48         5.0760    2.6900   -3.3320 c3        1 MOL      0.073933
    140 C49         5.4620    1.2140   -3.0600 c3        1 MOL     -0.151777
    141 H60         7.3030    2.4700   -1.0600 h1        1 MOL      0.120885
    142 H61         5.5420    4.3740   -2.2580 hc        1 MOL      0.086827
    143 H62         6.9260    3.4320   -3.1240 hc        1 MOL      0.086827
    144 H63         4.0610    2.9700   -3.0490 hc        1 MOL      0.018581
    145 H64         5.2710    2.8590   -4.3950 hc        1 MOL      0.018581
    146 H65         4.5910    0.5700   -3.1760 h1        1 MOL      0.018427
    147 H66         6.1940    0.7870   -3.7520 h1        1 MOL      0.018427
    148 N13         4.7170    1.9240    0.5260 n         1 MOL     -0.212983
    149 C50         4.0850    2.0030    1.7950 c3        1 MOL     -0.053915
    150 C51         4.9030    1.1750    2.8250 c         1 MOL      0.473925
    151 O21         5.0660    1.6180    3.9550 o         1 MOL     -0.561137
    152 C52         2.6690    1.5020    1.6880 c3        1 MOL      0.319993
    153 C53         1.9340    1.9420    0.4290 c3        1 MOL     -0.111364
    154 C54         0.6210    1.2200    0.3250 c         1 MOL      0.575032
    155 O22        -0.3800    1.7450   -0.2340 o         1 MOL     -0.698922
    156 O23         0.4250    0.0530    0.7540 o         1 MOL     -0.698922
    157 H67         4.6890    1.0390    0.0310 hn        1 MOL      0.048309
    158 H68         4.0190    3.0290    2.1660 h1        1 MOL      0.074109
    159 H69         2.1160    1.6680    2.6180 hc        1 MOL     -0.089213
    160 H70         2.7220    0.4240    1.5570 hc        1 MOL     -0.089213
    161 H71         2.4430    1.5760   -0.4580 hc        1 MOL      0.067487
    162 H72         1.8130    3.0200    0.3920 hc        1 MOL      0.067487
    163 N14         5.4540    0.0260    2.4750 n         1 MOL     -0.188642
    164 C55         6.4320   -0.7820    3.2340 c3        1 MOL     -0.115955
    165 H73         7.3740   -0.8210    2.6850 h1        1 MOL      0.064877
    166 H74         6.5990   -0.3280    4.2110 h1        1 MOL      0.064877
    167 H75         6.0460   -1.7930    3.3640 h1        1 MOL      0.064877
    168 H76         5.2040   -0.3320    1.5680 hn        1 MOL      0.167825
    169 Ca1        -2.1190   -0.1220   -0.1230 Ca        1 MOL      1.740678
    170 O24        -3.9130   -0.8430    1.9260 oh        1 MOL     -1.011878
    171 H77        -4.7600   -0.4160    2.0310 ho        1 MOL      0.475084
    172 H78        -3.3870   -0.5210    2.6620 ho        1 MOL      0.475084
    173 O25        -1.4480    0.0090    2.7530 oh        1 MOL     -1.011878
    174 H79        -1.4610    0.2430    3.6760 ho        1 MOL      0.475084
    175 H80        -0.5320    0.1420    2.4760 ho        1 MOL      0.475084
@<TRIPOS>BOND
     1    1    2 1   
     2    1    4 1   
     3    1    5 1   
     4    1    6 1   
     5    2    3 2   
     6    2    7 1   
     7    7    8 1   
     8    7   15 1   
     9    8    9 1   
    10    8   11 1   
    11    8   16 1   
    12    9   10 2   
    13    9   19 1   
    14   11   12 1   
    15   11   17 1   
    16   11   18 1   
    17   12   13 1   
    18   12   14 1   
    19   19   20 1   
    20   19   24 1   
    21   20   21 1   
    22   20   23 1   
    23   20   25 1   
    24   21   22 2   
    25   21   29 1   
    26   23   26 1   
    27   23   27 1   
    28   23   28 1   
    29   29   30 1   
    30   29   37 1   
    31   30   31 1   
    32   30   33 1   
    33   30   38 1   
    34   31   32 2   
    35   31   41 1   
    36   33   34 1   
    37   33   39 1   
    38   33   40 1   
    39   34   35 1   
    40   34   36 1   
    41   41   42 1   
    42   41   45 1   
    43   42   43 1   
    44   42   46 1   
    45   42   47 1   
    46   43   44 2   
    47   43   48 1   
    48   48   49 1   
    49   48   56 1   
    50   49   50 1   
    51   49   52 1   
    52   49   57 1   
    53   50   51 2   
    54   50   62 1   
    55   52   53 1   
    56   52   58 1   
    57   52   59 1   
    58   53   54 1   
    59   53   55 2   
    60   54   60 1   
    61   54   61 1   
    62   62   63 1   
    63   62   66 1   
    64   63   64 1   
    65   63   67 1   
    66   63   68 1   
    67   64   65 2   
    68   64   69 1   
    69   69   70 1   
    70   69   76 1   
    71   70   71 1   
    72   70   73 1   
    73   70   77 1   
    74   71   72 2   
    75   71   83 1   
    76   73   74 1   
    77   73   75 1   
    78   73   78 1   
    79   74   80 1   
    80   74   81 1   
    81   74   82 1   
    82   75   79 1   
    83   83   84 1   
    84   83   91 1   
    85   84   85 1   
    86   84   87 1   
    87   84   92 1   
    88   85   86 2   
    89   85  102 1   
    90   87   88 1   
    91   87   89 1   
    92   87   93 1   
    93   88   90 1   
    94   88   94 1   
    95   88   95 1   
    96   89   96 1   
    97   89   97 1   
    98   89   98 1   
    99   90   99 1   
   100   90  100 1   
   101   90  101 1   
   102  102  103 1   
   103  102  110 1   
   104  103  104 1   
   105  103  106 1   
   106  103  111 1   
   107  104  105 2   
   108  104  114 1   
   109  106  107 1   
   110  106  112 1   
   111  106  113 1   
   112  107  108 1   
   113  107  109 1   
   114  114  115 1   
   115  114  125 1   
   116  115  116 1   
   117  115  118 1   
   118  115  126 1   
   119  116  117 2   
   120  116  134 1   
   121  118  119 1   
   122  118  127 1   
   123  118  128 1   
   124  119  120 ar  
   125  119  121 ar  
   126  120  122 ar  
   127  120  129 1   
   128  121  123 ar  
   129  121  130 1   
   130  122  124 ar  
   131  122  131 1   
   132  123  124 ar  
   133  123  132 1   
   134  124  133 1   
   135  134  135 1   
   136  134  140 1   
   137  135  136 1   
   138  135  138 1   
   139  135  141 1   
   140  136  137 2   
   141  136  148 1   
   142  138  139 1   
   143  138  142 1   
   144  138  143 1   
   145  139  140 1   
   146  139  144 1   
   147  139  145 1   
   148  140  146 1   
   149  140  147 1   
   150  148  149 1   
   151  148  157 1   
   152  149  150 1   
   153  149  152 1   
   154  149  158 1   
   155  150  151 2   
   156  150  163 1   
   157  152  153 1   
   158  152  159 1   
   159  152  160 1   
   160  153  154 1   
   161  153  161 1   
   162  153  162 1   
   163  154  155 1   
   164  154  156 1   
   165  163  164 1   
   166  163  168 1   
   167  164  165 1   
   168  164  166 1   
   169  164  167 1   
   170  170  171 1   
   171  170  172 1   
   172  173  174 1   
   173  173  175 1   
@<TRIPOS>SUBSTRUCTURE
     1 MOL         1 TEMP              0 ****  ****    0 ROOT
