@<TRIPOS>MOLECULE
MOL
  186   183     1     0     0
SMALL
resp


@<TRIPOS>ATOM
      1 C1          0.6600   -2.7310    6.0010 c3        1 MOL     -0.392561
      2 C2          0.9550   -2.4370    4.5490 c         1 MOL      0.780354
      3 O1          0.1680   -2.8160    3.6630 o         1 MOL     -0.599285
      4 H1          0.1200   -1.8910    6.4390 hc        1 MOL      0.099154
      5 H2          0.0510   -3.6310    6.0730 hc        1 MOL      0.099154
      6 H3          1.5970   -2.8800    6.5390 hc        1 MOL      0.099154
      7 N1          2.0810   -1.7290    4.1900 n         1 MOL     -0.733592
      8 C3          2.5880   -1.6420    2.8150 c3        1 MOL      0.500285
      9 C4          3.0880   -3.0640    2.3430 c         1 MOL      0.404487
     10 O2          3.9370   -3.6750    2.9640 o         1 MOL     -0.583008
     11 C5          3.7490   -0.7040    2.8370 c3        1 MOL     -0.302836
     12 C6          4.3920   -0.3660    1.4830 c         1 MOL      0.748949
     13 O3          5.4860    0.2550    1.4730 o         1 MOL     -0.690026
     14 O4          3.8410   -0.7250    0.4390 o         1 MOL     -0.690026
     15 H4          2.6270   -1.4040    4.9740 hn        1 MOL      0.316721
     16 H5          1.7950   -1.2920    2.1540 h1        1 MOL     -0.076610
     17 H6          4.5150   -1.0730    3.5290 hc        1 MOL      0.043333
     18 H7          3.3860    0.2700    3.1560 hc        1 MOL      0.043333
     19 N2          2.4960   -3.6890    1.3440 n         1 MOL     -0.136475
     20 C7          2.7420   -5.0430    0.9420 c3        1 MOL      0.103188
     21 C8          3.9090   -4.9690   -0.0900 c         1 MOL      0.288557
     22 O5          4.9670   -5.6140    0.0530 o         1 MOL     -0.583778
     23 C9          1.4400   -5.6480    0.2780 c3        1 MOL      0.178345
     24 C10         0.1950   -5.7370    1.1580 c3        1 MOL      0.042811
     25 C11         1.6550   -7.0370   -0.3410 c3        1 MOL     -0.421496
     26 C12         0.3080   -6.5680    2.4830 c3        1 MOL     -0.206461
     27 H8          1.9530   -3.0850    0.7290 hn        1 MOL      0.091322
     28 H9          3.1520   -5.6690    1.7410 h1        1 MOL      0.069311
     29 H10         1.0890   -5.0190   -0.5280 hc        1 MOL     -0.005788
     30 H11        -0.6860   -6.0960    0.6210 hc        1 MOL      0.013628
     31 H12         0.0630   -4.6960    1.4530 hc        1 MOL      0.013628
     32 H13         2.5390   -7.0760   -0.9920 hc        1 MOL      0.089240
     33 H14         1.8930   -7.8070    0.3930 hc        1 MOL      0.089240
     34 H15         0.8700   -7.3090   -1.0450 hc        1 MOL      0.089240
     35 H16         0.3350   -7.6010    2.1460 hc        1 MOL      0.036800
     36 H17         1.2990   -6.3360    2.8860 hc        1 MOL      0.036800
     37 H18        -0.5270   -6.3660    3.1610 hc        1 MOL      0.036800
     38 N3          3.7330   -4.3080   -1.1610 n         1 MOL     -0.155759
     39 C13         4.8330   -4.1770   -2.1990 c3        1 MOL     -0.007996
     40 C14         6.0400   -3.1580   -1.8580 c         1 MOL      0.432390
     41 O6          6.9050   -2.9720   -2.6890 o         1 MOL     -0.498473
     42 C15         4.1550   -3.7480   -3.5440 c3        1 MOL     -0.359783
     43 C16         3.4460   -2.3440   -3.5060 c         1 MOL      0.832516
     44 O7          2.9280   -1.9060   -4.5810 o         1 MOL     -0.707075
     45 O8          3.4550   -1.6510   -2.4780 o         1 MOL     -0.707075
     46 H19         2.9280   -3.7170   -1.3230 hn        1 MOL      0.180199
     47 H20         5.2950   -5.1630   -2.3250 h1        1 MOL      0.102429
     48 H21         3.4350   -4.5240   -3.7950 hc        1 MOL      0.081395
     49 H22         4.9440   -3.7440   -4.3020 hc        1 MOL      0.081395
     50 N4          5.9760   -2.5690   -0.6490 n         1 MOL     -0.176477
     51 C17         7.0950   -1.9240    0.0050 c3        1 MOL     -0.152577
     52 C18         7.7300   -0.7370   -0.6810 c         1 MOL      0.484829
     53 O9          8.9580   -0.7100   -0.8880 o         1 MOL     -0.585775
     54 H23         5.0990   -2.5260   -0.1510 hn        1 MOL      0.243532
     55 H24         7.9240   -2.6280    0.1430 h1        1 MOL      0.078159
     56 H25         6.7820   -1.5410    0.9780 h1        1 MOL      0.078159
     57 N5          6.8650    0.1470   -1.1970 n         1 MOL     -0.165881
     58 C19         7.1930    1.4160   -1.8400 c3        1 MOL     -0.006204
     59 C20         7.2970    2.5870   -0.8000 c         1 MOL      0.402989
     60 O10         7.8300    3.6560   -1.1970 o         1 MOL     -0.569548
     61 C21         6.2600    1.7810   -3.0150 c3        1 MOL     -0.220035
     62 C22         4.7570    1.6960   -2.6690 c         1 MOL      0.769094
     63 O11         4.2870    2.1990   -1.5990 o         1 MOL     -0.745463
     64 O12         3.9630    1.1910   -3.4940 o         1 MOL     -0.745463
     65 H26         5.8950   -0.1290   -1.1640 hn        1 MOL      0.159700
     66 H27         8.2200    1.3490   -2.2130 h1        1 MOL      0.081948
     67 H28         6.4960    1.0820   -3.8130 hc        1 MOL      0.064757
     68 H29         6.4300    2.7990   -3.3680 hc        1 MOL      0.064757
     69 N6          6.8550    2.3790    0.4790 n         1 MOL     -0.225484
     70 C23         6.9020    3.3140    1.5800 c3        1 MOL     -0.027326
     71 C24         5.5430    4.0020    1.9350 c         1 MOL      0.572807
     72 O13         5.5680    4.8760    2.7310 o         1 MOL     -0.583062
     73 H30         6.4160    1.4970    0.6850 hn        1 MOL      0.210480
     74 H31         7.6480    4.0940    1.4120 h1        1 MOL      0.044745
     75 H32         7.2580    2.7440    2.4330 h1        1 MOL      0.044745
     76 N7          4.4710    3.6020    1.2250 n         1 MOL     -0.392775
     77 C25         3.0480    4.0250    1.4590 c3        1 MOL      0.120846
     78 C26         2.0760    2.8700    1.4460 c         1 MOL      0.573702
     79 O14         2.1890    1.8150    0.7480 o         1 MOL     -0.621138
     80 C27         2.6700    5.2170    0.5890 c3        1 MOL     -0.116205
     81 C28         3.5950    6.4170    0.5930 c3        1 MOL     -0.247098
     82 C29         3.3210    7.4990   -0.4090 c         1 MOL      0.674467
     83 N8          3.8640    7.3450   -1.5690 n         1 MOL     -0.783632
     84 O15         2.9270    8.6260   -0.1360 o         1 MOL     -0.600019
     85 H33         4.4870    2.8360    0.5570 hn        1 MOL      0.243205
     86 H34         3.0720    4.4290    2.4710 h1        1 MOL      0.030541
     87 H35         1.6550    5.5420    0.8250 hc        1 MOL      0.053859
     88 H36         2.5560    4.9060   -0.4540 hc        1 MOL      0.053859
     89 H37         4.6130    6.0910    0.3820 hc        1 MOL      0.107503
     90 H38         3.3840    6.8690    1.5610 hc        1 MOL      0.107503
     91 H39         4.4650    6.5480   -1.7180 hn        1 MOL      0.363546
     92 H40         3.8560    8.1380   -2.1970 hn        1 MOL      0.363546
     93 N9          0.9120    3.1100    2.0850 n         1 MOL     -0.478463
     94 C30        -0.2300    2.2210    2.1290 c3        1 MOL      0.213095
     95 C31        -1.3570    2.8350    1.3100 c         1 MOL      0.273311
     96 O16        -2.0010    3.8540    1.5570 o         1 MOL     -0.525225
     97 C32        -0.7190    1.9430    3.5130 c3        1 MOL      0.155095
     98 C33        -1.7820    0.8090    3.6640 c3        1 MOL     -0.237250
     99 C34         0.4570    1.6570    4.5320 c3        1 MOL     -0.237250
    100 H41         0.7150    4.0260    2.4810 hn        1 MOL      0.263186
    101 H42        -0.0400    1.2230    1.7340 h1        1 MOL      0.178886
    102 H43        -1.1610    2.8400    3.9620 hc        1 MOL     -0.043901
    103 H44        -1.2480   -0.1210    3.4790 hc        1 MOL      0.049860
    104 H45        -2.1890    0.7000    4.6680 hc        1 MOL      0.049860
    105 H46        -2.5720    0.8040    2.9200 hc        1 MOL      0.049860
    106 H47         0.9740    0.7820    4.1510 hc        1 MOL      0.049860
    107 H48         1.2140    2.4460    4.5820 hc        1 MOL      0.049860
    108 H49         0.1150    1.5010    5.5600 hc        1 MOL      0.049860
    109 N10        -1.5900    2.2150    0.1300 n         1 MOL     -0.044559
    110 C35        -2.7310    2.4270   -0.7360 c3        1 MOL      0.069283
    111 C36        -4.0360    2.0530   -0.0810 c         1 MOL      0.284223
    112 O17        -4.0580    1.2020    0.7860 o         1 MOL     -0.184049
    113 C37        -2.6010    1.5420   -2.0900 c3        1 MOL     -0.588607
    114 C38        -3.6150    2.0330   -3.1500 c         1 MOL      0.724993
    115 N11        -3.3100    3.0130   -3.9650 n         1 MOL     -0.792332
    116 O18        -4.7620    1.6300   -3.3210 o         1 MOL     -0.532182
    117 H50        -1.0390    1.4030   -0.1210 hn        1 MOL      0.028633
    118 H51        -2.9080    3.4780   -0.9410 h1        1 MOL      0.041393
    119 H52        -2.7940    0.5040   -1.8210 hc        1 MOL      0.258595
    120 H53        -1.5980    1.6340   -2.4890 hc        1 MOL      0.258595
    121 H54        -2.4160    3.4800   -3.9680 hn        1 MOL      0.356767
    122 H55        -3.9200    3.2490   -4.7350 hn        1 MOL      0.356767
    123 N12        -5.2070    2.5420   -0.5890 n         1 MOL     -0.355483
    124 C39        -6.5230    2.0830   -0.0600 c3        1 MOL      0.187912
    125 C40        -6.6470    0.5930   -0.1130 c         1 MOL      0.674098
    126 O19        -7.1690    0.0650    0.8310 o         1 MOL     -0.526620
    127 C41        -7.6510    2.5600   -0.9510 c3        1 MOL     -0.263730
    128 C42        -9.0340    2.2560   -0.3580 ca        1 MOL      0.005254
    129 C43        -9.3650    2.7190    0.8920 ca        1 MOL     -0.113221
    130 C44       -10.0140    1.6310   -1.1470 ca        1 MOL     -0.113221
    131 C45       -10.5840    2.3450    1.4180 ca        1 MOL     -0.367076
    132 C46       -11.2580    1.2980   -0.6370 ca        1 MOL     -0.367076
    133 C47       -11.5370    1.5870    0.7100 ca        1 MOL      0.557770
    134 O20       -12.7810    1.3160    1.2190 oh        1 MOL     -0.648702
    135 H56        -5.1950    3.3190   -1.2270 hn        1 MOL      0.256601
    136 H57        -6.7140    2.6000    0.8840 h1        1 MOL      0.003819
    137 H58        -7.4880    1.9670   -1.8550 hc        1 MOL      0.078576
    138 H59        -7.5410    3.6400   -1.1260 hc        1 MOL      0.078576
    139 H60        -8.7450    3.4760    1.3630 ha        1 MOL      0.144514
    140 H61        -9.7530    1.4500   -2.1860 ha        1 MOL      0.144514
    141 H62       -10.8300    2.8250    2.3540 ha        1 MOL      0.155529
    142 H63       -11.9460    0.6650   -1.1760 ha        1 MOL      0.155529
    143 H64       -13.5820    1.1760    0.7040 ho        1 MOL      0.421569
    144 N13        -6.0790   -0.0300   -1.1010 n         1 MOL     -0.266556
    145 C48        -6.1530   -1.3970   -1.4180 c3        1 MOL      0.008915
    146 C49        -5.4880   -2.2500   -0.3510 c         1 MOL      0.185563
    147 O21        -5.9060   -3.3020    0.0500 o         1 MOL     -0.453733
    148 C50        -5.5310   -1.6900   -2.7670 c3        1 MOL      0.157770
    149 C51        -5.9710   -3.0720   -3.2350 c3        1 MOL     -0.371476
    150 C52        -7.4520   -3.1250   -3.7090 c         1 MOL      0.717108
    151 O22        -8.3270   -3.4830   -2.8600 o         1 MOL     -0.730573
    152 O23        -7.7700   -2.7600   -4.8680 o         1 MOL     -0.730573
    153 H65        -5.6540    0.5820   -1.7920 hn        1 MOL      0.202869
    154 H66        -7.2070   -1.6580   -1.4860 h1        1 MOL      0.120521
    155 H67        -4.4500   -1.5430   -2.7000 hc        1 MOL     -0.001515
    156 H68        -5.9280   -0.8910   -3.3860 hc        1 MOL     -0.001515
    157 H69        -5.7890   -3.7470   -2.4000 hc        1 MOL      0.066416
    158 H70        -5.3040   -3.3480   -4.0540 hc        1 MOL      0.066416
    159 N14        -4.3510   -1.6630    0.1180 n         1 MOL      0.593036
    160 C53        -3.5130   -2.1500    1.1790 c3        1 MOL     -0.266613
    161 C54        -4.0750   -1.9060    2.5640 c         1 MOL      0.420940
    162 O24        -3.9740   -2.7390    3.5160 o         1 MOL     -0.570184
    163 C55        -2.1050   -1.6340    0.8720 c3        1 MOL      0.079612
    164 C56        -1.5010   -2.0590   -0.4610 c3        1 MOL     -0.199405
    165 C57        -0.1520   -1.3970   -0.5680 c         1 MOL      0.580907
    166 O25         0.8880   -2.0870   -0.6230 o         1 MOL     -0.642972
    167 O26        -0.0020   -0.1490   -0.4760 o         1 MOL     -0.642972
    168 H71        -4.1180   -0.7420   -0.1940 hn        1 MOL     -0.827648
    169 H72        -3.4830   -3.2430    1.1100 h1        1 MOL      0.102768
    170 H73        -1.4190   -1.9020    1.6810 hc        1 MOL      0.092077
    171 H74        -2.1220   -0.5450    0.8980 hc        1 MOL      0.092077
    172 H75        -2.1040   -1.6500   -1.2720 hc        1 MOL      0.080953
    173 H76        -1.3920   -3.1360   -0.5870 hc        1 MOL      0.080953
    174 N15        -4.8460   -0.8660    2.7480 n         1 MOL      0.108691
    175 C58        -5.4250   -0.5920    4.0790 c3        1 MOL     -0.248072
    176 H77        -5.3420    0.4720    4.2990 h1        1 MOL      0.084682
    177 H78        -6.4760   -0.8830    4.0860 h1        1 MOL      0.084682
    178 H79        -4.8840   -1.1610    4.8350 h1        1 MOL      0.084682
    179 H80        -4.9610   -0.2330    1.9690 hn        1 MOL     -0.033528
    180 Ca1         2.2980    0.2630   -1.4290 Ca        1 MOL      1.708551
    181 O27         1.1010    2.6560   -1.8300 oh        1 MOL     -0.848157
    182 H81         0.7310    2.6260   -2.7060 ho        1 MOL      0.390249
    183 H82         1.2420    3.5850   -1.6450 ho        1 MOL      0.390249
    184 O28         0.9460   -0.2110   -3.8180 oh        1 MOL     -0.848157
    185 H83         1.6790   -0.6930   -4.2060 ho        1 MOL      0.390249
    186 H84         0.6010    0.3200   -4.5430 ho        1 MOL      0.390249
@<TRIPOS>BOND
     1    1    2 1   
     2    1    4 1   
     3    1    5 1   
     4    1    6 1   
     5    2    3 2   
     6    2    7 1   
     7    7    8 1   
     8    7   15 1   
     9    8    9 1   
    10    8   11 1   
    11    8   16 1   
    12    9   10 2   
    13    9   19 1   
    14   11   12 1   
    15   11   17 1   
    16   11   18 1   
    17   12   13 1   
    18   12   14 1   
    19   19   20 1   
    20   19   27 1   
    21   20   21 1   
    22   20   23 1   
    23   20   28 1   
    24   21   22 2   
    25   21   38 1   
    26   23   24 1   
    27   23   25 1   
    28   23   29 1   
    29   24   26 1   
    30   24   30 1   
    31   24   31 1   
    32   25   32 1   
    33   25   33 1   
    34   25   34 1   
    35   26   35 1   
    36   26   36 1   
    37   26   37 1   
    38   38   39 1   
    39   38   46 1   
    40   39   40 1   
    41   39   42 1   
    42   39   47 1   
    43   40   41 2   
    44   40   50 1   
    45   42   43 1   
    46   42   48 1   
    47   42   49 1   
    48   43   44 1   
    49   43   45 1   
    50   50   51 1   
    51   50   54 1   
    52   51   52 1   
    53   51   55 1   
    54   51   56 1   
    55   52   53 2   
    56   52   57 1   
    57   57   58 1   
    58   57   65 1   
    59   58   59 1   
    60   58   61 1   
    61   58   66 1   
    62   59   60 2   
    63   59   69 1   
    64   61   62 1   
    65   61   67 1   
    66   61   68 1   
    67   62   63 1   
    68   62   64 1   
    69   69   70 1   
    70   69   73 1   
    71   70   71 1   
    72   70   74 1   
    73   70   75 1   
    74   71   72 2   
    75   71   76 1   
    76   76   77 1   
    77   76   85 1   
    78   77   78 1   
    79   77   80 1   
    80   77   86 1   
    81   78   79 2   
    82   78   93 1   
    83   80   81 1   
    84   80   87 1   
    85   80   88 1   
    86   81   82 1   
    87   81   89 1   
    88   81   90 1   
    89   82   83 1   
    90   82   84 2   
    91   83   91 1   
    92   83   92 1   
    93   93   94 1   
    94   93  100 1   
    95   94   95 1   
    96   94   97 1   
    97   94  101 1   
    98   95   96 2   
    99   95  109 1   
   100   97   98 1   
   101   97   99 1   
   102   97  102 1   
   103   98  103 1   
   104   98  104 1   
   105   98  105 1   
   106   99  106 1   
   107   99  107 1   
   108   99  108 1   
   109  109  110 1   
   110  109  117 1   
   111  110  111 1   
   112  110  113 1   
   113  110  118 1   
   114  111  112 2   
   115  111  123 1   
   116  113  114 1   
   117  113  119 1   
   118  113  120 1   
   119  114  115 1   
   120  114  116 2   
   121  115  121 1   
   122  115  122 1   
   123  123  124 1   
   124  123  135 1   
   125  124  125 1   
   126  124  127 1   
   127  124  136 1   
   128  125  126 2   
   129  125  144 1   
   130  127  128 1   
   131  127  137 1   
   132  127  138 1   
   133  128  129 ar  
   134  128  130 ar  
   135  129  131 ar  
   136  129  139 1   
   137  130  132 ar  
   138  130  140 1   
   139  131  133 ar  
   140  131  141 1   
   141  132  133 ar  
   142  132  142 1   
   143  133  134 1   
   144  134  143 1   
   145  144  145 1   
   146  144  153 1   
   147  145  146 1   
   148  145  148 1   
   149  145  154 1   
   150  146  147 2   
   151  146  159 1   
   152  148  149 1   
   153  148  155 1   
   154  148  156 1   
   155  149  150 1   
   156  149  157 1   
   157  149  158 1   
   158  150  151 1   
   159  150  152 1   
   160  159  160 1   
   161  159  168 1   
   162  160  161 1   
   163  160  163 1   
   164  160  169 1   
   165  161  162 2   
   166  161  174 1   
   167  163  164 1   
   168  163  170 1   
   169  163  171 1   
   170  164  165 1   
   171  164  172 1   
   172  164  173 1   
   173  165  166 1   
   174  165  167 1   
   175  174  175 1   
   176  174  179 1   
   177  175  176 1   
   178  175  177 1   
   179  175  178 1   
   180  181  182 1   
   181  181  183 1   
   182  184  185 1   
   183  184  186 1   
@<TRIPOS>SUBSTRUCTURE
     1 MOL         1 TEMP              0 ****  ****    0 ROOT
