@<TRIPOS>MOLECULE
MOL
  179   176     1     0     0
SMALL
resp


@<TRIPOS>ATOM
      1 C1         -1.1940    4.5520    6.0840 c3        1 MOL     -0.413164
      2 C2         -0.7740    3.7090    4.8080 c         1 MOL      0.688952
      3 O1          0.3120    3.9510    4.3240 o         1 MOL     -0.554813
      4 H1         -1.6840    3.8980    6.8050 hc        1 MOL      0.109661
      5 H2         -0.3060    4.9920    6.5370 hc        1 MOL      0.109661
      6 H3         -1.8820    5.3440    5.7860 hc        1 MOL      0.109661
      7 N1         -1.6680    2.7900    4.3270 n         1 MOL     -0.503924
      8 C3         -1.7360    2.4800    2.9110 c3        1 MOL      0.130036
      9 C4         -2.1680    3.7490    2.1860 c         1 MOL      0.408398
     10 O2         -3.2930    4.2260    2.3620 o         1 MOL     -0.514829
     11 C5         -2.5830    1.2960    2.5860 c3        1 MOL     -0.278015
     12 C6         -2.6570    0.9350    1.1360 c         1 MOL      0.960940
     13 O3         -1.8460    1.4000    0.3410 o         1 MOL     -0.802315
     14 O4         -3.4960    0.0530    0.7910 o         1 MOL     -0.802315
     15 H4         -2.5050    2.5800    4.8460 hn        1 MOL      0.292657
     16 H5         -0.7330    2.2800    2.5560 h1        1 MOL      0.042357
     17 H6         -3.6140    1.6000    2.7860 hc        1 MOL      0.066445
     18 H7         -2.3170    0.3960    3.1460 hc        1 MOL      0.066445
     19 N2         -1.2420    4.3520    1.4750 n         1 MOL     -0.241863
     20 C7         -1.3630    5.6750    0.8480 c3        1 MOL     -0.028067
     21 C8         -2.4330    5.6390   -0.2180 c         1 MOL      0.402814
     22 O5         -3.1360    6.6540   -0.3800 o         1 MOL     -0.551471
     23 C9          0.0400    6.1740    0.3650 c3        1 MOL      0.033334
     24 C10        -0.0220    7.4100   -0.5050 c3        1 MOL      0.210798
     25 C11         1.1890    8.3680   -0.6180 c3        1 MOL     -0.302647
     26 C12         2.3790    7.6280   -1.4090 c3        1 MOL     -0.025296
     27 N3          2.1180    7.6730   -2.8430 n4        1 MOL     -0.335197
     28 H8         -0.3020    3.9830    1.4970 hn        1 MOL      0.229599
     29 H9         -1.7150    6.4400    1.5410 h1        1 MOL      0.119068
     30 H10         0.6150    5.4400   -0.2040 hc        1 MOL      0.004112
     31 H11         0.5910    6.4260    1.2700 hc        1 MOL      0.004112
     32 H12        -0.8500    7.9500   -0.0500 hc        1 MOL     -0.044185
     33 H13        -0.3320    7.1320   -1.5100 hc        1 MOL     -0.044185
     34 H14         1.5400    8.6060    0.3860 hc        1 MOL      0.133167
     35 H15         0.8260    9.2710   -1.1120 hc        1 MOL      0.133167
     36 H16         2.3740    6.5870   -1.0720 hx        1 MOL      0.121298
     37 H17         3.3770    7.9980   -1.1880 hx        1 MOL      0.121298
     38 H18         2.8030    7.1940   -3.4110 hn        1 MOL      0.324557
     39 H19         1.2970    7.1440   -3.1060 hn        1 MOL      0.324557
     40 H20         1.9720    8.6130   -3.1740 hn        1 MOL      0.324557
     41 N4         -2.5370    4.5740   -0.9810 n         1 MOL     -0.236687
     42 C13        -3.5600    4.4780   -2.0690 c3        1 MOL     -0.000718
     43 C14        -4.8620    3.7320   -1.7060 c         1 MOL      0.372327
     44 O6         -5.7630    3.5830   -2.5410 o         1 MOL     -0.517860
     45 C15        -2.9720    3.8230   -3.3350 c3        1 MOL     -0.209802
     46 C16        -2.4250    2.4250   -2.9330 c         1 MOL      0.768651
     47 O7         -1.2110    2.1720   -2.8000 o         1 MOL     -0.744342
     48 O8         -3.2310    1.4430   -2.7520 o         1 MOL     -0.744342
     49 H21        -1.8040    3.8710   -0.9190 hn        1 MOL      0.199494
     50 H22        -3.7170    5.5260   -2.3330 h1        1 MOL      0.113055
     51 H23        -2.1020    4.2970   -3.7960 hc        1 MOL      0.056654
     52 H24        -3.6720    3.7770   -4.1640 hc        1 MOL      0.056654
     53 N5         -4.9810    3.2790   -0.4660 n         1 MOL     -0.101023
     54 C17        -6.2810    2.8150    0.0550 c3        1 MOL     -0.199176
     55 C18        -6.6850    1.3520   -0.2660 c         1 MOL      0.563851
     56 O9         -7.7310    0.9270    0.1690 o         1 MOL     -0.566687
     57 H25        -4.1640    3.3780    0.1110 hn        1 MOL      0.195877
     58 H26        -7.0430    3.4490   -0.4150 h1        1 MOL      0.108714
     59 H27        -6.4160    2.9980    1.1130 h1        1 MOL      0.108714
     60 N6         -5.9130    0.5320   -0.9910 n         1 MOL     -0.222453
     61 C19        -6.4460   -0.8140   -1.2100 c3        1 MOL     -0.144921
     62 C20        -6.3470   -1.8010    0.0380 c         1 MOL      0.356843
     63 O10        -6.9990   -2.8610   -0.1090 o         1 MOL     -0.480068
     64 C21        -5.8650   -1.3150   -2.4870 c3        1 MOL     -0.043529
     65 C22        -4.5250   -1.8990   -2.5280 c         1 MOL      0.774039
     66 N7         -4.1170   -2.4650   -3.5970 n         1 MOL     -0.734968
     67 O11        -3.7680   -1.7950   -1.5230 o         1 MOL     -0.680129
     68 H28        -4.9270    0.7380   -1.0610 hn        1 MOL      0.112915
     69 H29        -7.5160   -0.7080   -1.3950 h1        1 MOL      0.155161
     70 H30        -5.8210   -0.5920   -3.3030 hc        1 MOL      0.035981
     71 H31        -6.5040   -2.1220   -2.8680 hc        1 MOL      0.035981
     72 H32        -4.6860   -2.5810   -4.4140 hn        1 MOL      0.342712
     73 H33        -3.4780   -3.2280   -3.4420 hn        1 MOL      0.342712
     74 N8         -5.5800   -1.5000    1.0770 n         1 MOL     -0.053727
     75 C23        -5.5330   -2.2420    2.3270 c3        1 MOL     -0.276029
     76 C24        -4.2770   -3.2160    2.2370 c         1 MOL      0.455505
     77 O12        -4.1410   -4.2330    3.0140 o         1 MOL     -0.562147
     78 H34        -4.9790   -0.6930    1.0750 hn        1 MOL      0.191467
     79 H35        -6.4600   -2.8170    2.4480 h1        1 MOL      0.127549
     80 H36        -5.3020   -1.5710    3.1520 h1        1 MOL      0.127549
     81 N9         -3.3600   -2.8940    1.3280 n         1 MOL     -0.122362
     82 C25        -2.0460   -3.5920    1.1680 c3        1 MOL      0.351419
     83 C26        -0.8620   -2.5700    1.0670 c         1 MOL      0.176433
     84 O13        -0.9880   -1.4890    0.5160 o         1 MOL     -0.575114
     85 C27        -2.0340   -4.4440   -0.1580 c3        1 MOL     -0.028139
     86 C28        -3.0270   -5.5900   -0.1260 ca        1 MOL      0.141374
     87 C29        -4.3880   -5.4410   -0.6130 ca        1 MOL     -0.247950
     88 C30        -2.5360   -6.9050    0.1680 ca        1 MOL     -0.247950
     89 C31        -5.2230   -6.5570   -0.5820 ca        1 MOL     -0.171422
     90 C32        -3.3190   -8.0490   -0.0100 ca        1 MOL     -0.171422
     91 C33        -4.7480   -7.8860   -0.2900 ca        1 MOL      0.215058
     92 O14        -5.5830   -8.9280   -0.0730 oh        1 MOL     -0.419394
     93 H37        -3.5890   -1.9840    0.9620 hn        1 MOL      0.152906
     94 H38        -1.8290   -4.1800    2.0550 h1        1 MOL     -0.051540
     95 H39        -0.9980   -4.7510   -0.2770 hc        1 MOL     -0.028881
     96 H40        -2.2480   -3.8660   -1.0550 hc        1 MOL     -0.028881
     97 H41        -4.7360   -4.5260   -1.0650 ha        1 MOL      0.136823
     98 H42        -1.5530   -7.0560    0.6070 ha        1 MOL      0.136823
     99 H43        -6.2570   -6.3650   -0.8500 ha        1 MOL      0.124662
    100 H44        -2.9480   -9.0720    0.0350 ha        1 MOL      0.124662
    101 H45        -5.0930   -9.7490    0.0510 ho        1 MOL      0.343117
    102 N10         0.3140   -3.0450    1.5360 n         1 MOL     -0.211302
    103 C34         1.6100   -2.3960    1.6480 c3        1 MOL     -0.212069
    104 C35         2.7050   -3.3180    1.1130 c         1 MOL      0.475028
    105 O15         2.9210   -4.3980    1.7080 o         1 MOL     -0.551942
    106 C36         2.0390   -1.9220    3.0720 c3        1 MOL     -0.072869
    107 C37         1.2030   -0.6640    3.4000 c3        1 MOL      0.057310
    108 C38         3.5590   -1.5340    3.1490 c3        1 MOL      0.190606
    109 C39         1.3070   -0.2240    4.8770 c3        1 MOL     -0.194202
    110 H46         0.2860   -3.9700    1.9290 hn        1 MOL      0.283915
    111 H47         1.5940   -1.5500    0.9570 h1        1 MOL      0.151995
    112 H48         1.8230   -2.7440    3.7430 hc        1 MOL      0.071001
    113 H49         0.1610   -0.9540    3.2120 hc        1 MOL      0.051471
    114 H50         1.4140    0.2350    2.8240 hc        1 MOL      0.051471
    115 H51         4.1350   -2.4620    3.1700 hc        1 MOL     -0.035596
    116 H52         3.8940   -0.7340    2.4920 hc        1 MOL     -0.035596
    117 H53         3.7640   -1.1690    4.1540 hc        1 MOL     -0.035596
    118 H54         0.4290    0.3650    5.1120 hc        1 MOL      0.033374
    119 H55         1.5980   -1.0790    5.4900 hc        1 MOL      0.033374
    120 H56         2.1120    0.5100    4.8800 hc        1 MOL      0.033374
    121 N11         3.3890   -3.0180    0.0610 n         1 MOL     -0.197116
    122 C40         4.6220   -3.6670   -0.4820 c3        1 MOL     -0.117727
    123 C41         5.8820   -3.1080    0.2250 c         1 MOL      0.550987
    124 O16         5.7190   -2.2430    1.1130 o         1 MOL     -0.440102
    125 C42         4.7000   -3.5920   -2.0080 c3        1 MOL     -0.001249
    126 O17         4.8480   -2.2260   -2.3180 oh        1 MOL     -0.513559
    127 H57         3.0920   -2.2400   -0.4980 hn        1 MOL      0.175504
    128 H58         4.5720   -4.7000   -0.1160 h1        1 MOL      0.083406
    129 H59         3.8410   -4.0800   -2.4710 h1        1 MOL      0.075124
    130 H60         5.5280   -4.1870   -2.3960 h1        1 MOL      0.075124
    131 H61         3.9680   -1.8970   -2.4700 ho        1 MOL      0.374473
    132 N12         7.0470   -3.5100   -0.2250 n         1 MOL     -0.481356
    133 C43         8.3230   -2.9160    0.2540 c3        1 MOL      0.182207
    134 C44         8.5470   -1.4550   -0.3270 c         1 MOL      0.503042
    135 O18         8.9380   -0.5440    0.4400 o         1 MOL     -0.525758
    136 C45         9.4420   -3.8250   -0.2090 c3        1 MOL     -0.249182
    137 H62         7.0370   -4.2330   -0.9220 hn        1 MOL      0.295938
    138 H63         8.3720   -2.8120    1.3360 h1        1 MOL      0.071957
    139 H64         9.3120   -4.8100    0.2350 hc        1 MOL      0.072225
    140 H65         9.5380   -3.9750   -1.2870 hc        1 MOL      0.072225
    141 H66        10.3510   -3.3510    0.1750 hc        1 MOL      0.072225
    142 N13         8.2430   -1.2430   -1.6030 n         1 MOL     -0.502475
    143 C46         8.2960    0.0950   -2.2500 c3        1 MOL      0.132236
    144 C47         7.2780    1.1770   -1.6200 c         1 MOL      0.361131
    145 O19         7.5710    2.3630   -1.7040 o         1 MOL     -0.499010
    146 C48         7.8700   -0.2220   -3.7140 c3        1 MOL     -0.289862
    147 H67         7.7890   -2.0320   -2.0240 hn        1 MOL      0.319364
    148 H68         9.2460    0.6300   -2.2620 h1        1 MOL      0.098847
    149 H69         8.5170   -0.9970   -4.1220 hc        1 MOL      0.077631
    150 H70         6.8820   -0.6690   -3.7790 hc        1 MOL      0.077631
    151 H71         7.9750    0.6630   -4.3470 hc        1 MOL      0.077631
    152 N14         6.1850    0.6490   -1.0230 n         1 MOL      0.022556
    153 C49         5.3020    1.5190   -0.2100 c3        1 MOL      0.027513
    154 C50         5.7920    1.7500    1.2420 c         1 MOL      0.342874
    155 O20         6.0550    2.9060    1.5870 o         1 MOL     -0.530839
    156 C51         3.9300    0.8260   -0.2380 c3        1 MOL      0.163719
    157 C52         3.3490    0.9850   -1.6610 c3        1 MOL     -0.392659
    158 C53         2.1660    0.0550   -1.7650 c         1 MOL      0.883883
    159 O21         1.0120    0.3880   -1.5390 o         1 MOL     -0.718713
    160 O22         2.4790   -1.1010   -2.0720 o         1 MOL     -0.718713
    161 H72         6.0190   -0.3530   -1.0630 hn        1 MOL      0.057379
    162 H73         5.2200    2.4940   -0.6960 h1        1 MOL      0.039088
    163 H74         3.2280    1.1560    0.5300 hc        1 MOL     -0.031641
    164 H75         4.1400   -0.2310   -0.1330 hc        1 MOL     -0.031641
    165 H76         4.0990    0.7910   -2.4290 hc        1 MOL      0.059960
    166 H77         2.9470    1.9970   -1.6480 hc        1 MOL      0.059960
    167 N15         6.1270    0.6930    1.9860 n         1 MOL      0.074328
    168 C54         6.7310    0.7530    3.2920 c3        1 MOL     -0.471154
    169 H78         7.6080    1.4000    3.2570 h1        1 MOL      0.155009
    170 H79         6.0130    1.1550    4.0080 h1        1 MOL      0.155009
    171 H80         7.0320   -0.2480    3.6010 h1        1 MOL      0.155009
    172 H81         6.0730   -0.1980    1.5270 hn        1 MOL      0.043848
    173 Ca1        -1.5840   -0.3070   -1.6670 Ca        1 MOL      1.793674
    174 O23         0.2730   -2.3450   -2.2250 oh        1 MOL     -0.889258
    175 H82         1.1340   -1.9440   -2.0880 ho        1 MOL      0.425356
    176 H83         0.4650   -3.2710   -2.3630 ho        1 MOL      0.425356
    177 O24        -1.3150   -0.5430   -4.2960 oh        1 MOL     -0.889258
    178 H84        -1.7230    0.0740   -4.9000 ho        1 MOL      0.425356
    179 H85        -0.5560   -0.8820   -4.7920 ho        1 MOL      0.425356
@<TRIPOS>BOND
     1    1    2 1   
     2    1    4 1   
     3    1    5 1   
     4    1    6 1   
     5    2    3 2   
     6    2    7 1   
     7    7    8 1   
     8    7   15 1   
     9    8    9 1   
    10    8   11 1   
    11    8   16 1   
    12    9   10 2   
    13    9   19 1   
    14   11   12 1   
    15   11   17 1   
    16   11   18 1   
    17   12   13 1   
    18   12   14 1   
    19   19   20 1   
    20   19   28 1   
    21   20   21 1   
    22   20   23 1   
    23   20   29 1   
    24   21   22 2   
    25   21   41 1   
    26   23   24 1   
    27   23   30 1   
    28   23   31 1   
    29   24   25 1   
    30   24   32 1   
    31   24   33 1   
    32   25   26 1   
    33   25   34 1   
    34   25   35 1   
    35   26   27 1   
    36   26   36 1   
    37   26   37 1   
    38   27   38 1   
    39   27   39 1   
    40   27   40 1   
    41   41   42 1   
    42   41   49 1   
    43   42   43 1   
    44   42   45 1   
    45   42   50 1   
    46   43   44 2   
    47   43   53 1   
    48   45   46 1   
    49   45   51 1   
    50   45   52 1   
    51   46   47 1   
    52   46   48 1   
    53   53   54 1   
    54   53   57 1   
    55   54   55 1   
    56   54   58 1   
    57   54   59 1   
    58   55   56 2   
    59   55   60 1   
    60   60   61 1   
    61   60   68 1   
    62   61   62 1   
    63   61   64 1   
    64   61   69 1   
    65   62   63 2   
    66   62   74 1   
    67   64   65 1   
    68   64   70 1   
    69   64   71 1   
    70   65   66 1   
    71   65   67 2   
    72   66   72 1   
    73   66   73 1   
    74   74   75 1   
    75   74   78 1   
    76   75   76 1   
    77   75   79 1   
    78   75   80 1   
    79   76   77 2   
    80   76   81 1   
    81   81   82 1   
    82   81   93 1   
    83   82   83 1   
    84   82   85 1   
    85   82   94 1   
    86   83   84 2   
    87   83  102 1   
    88   85   86 1   
    89   85   95 1   
    90   85   96 1   
    91   86   87 ar  
    92   86   88 ar  
    93   87   89 ar  
    94   87   97 1   
    95   88   90 ar  
    96   88   98 1   
    97   89   91 ar  
    98   89   99 1   
    99   90   91 ar  
   100   90  100 1   
   101   91   92 1   
   102   92  101 1   
   103  102  103 1   
   104  102  110 1   
   105  103  104 1   
   106  103  106 1   
   107  103  111 1   
   108  104  105 2   
   109  104  121 1   
   110  106  107 1   
   111  106  108 1   
   112  106  112 1   
   113  107  109 1   
   114  107  113 1   
   115  107  114 1   
   116  108  115 1   
   117  108  116 1   
   118  108  117 1   
   119  109  118 1   
   120  109  119 1   
   121  109  120 1   
   122  121  122 1   
   123  121  127 1   
   124  122  123 1   
   125  122  125 1   
   126  122  128 1   
   127  123  124 2   
   128  123  132 1   
   129  125  126 1   
   130  125  129 1   
   131  125  130 1   
   132  126  131 1   
   133  132  133 1   
   134  132  137 1   
   135  133  134 1   
   136  133  136 1   
   137  133  138 1   
   138  134  135 2   
   139  134  142 1   
   140  136  139 1   
   141  136  140 1   
   142  136  141 1   
   143  142  143 1   
   144  142  147 1   
   145  143  144 1   
   146  143  146 1   
   147  143  148 1   
   148  144  145 2   
   149  144  152 1   
   150  146  149 1   
   151  146  150 1   
   152  146  151 1   
   153  152  153 1   
   154  152  161 1   
   155  153  154 1   
   156  153  156 1   
   157  153  162 1   
   158  154  155 2   
   159  154  167 1   
   160  156  157 1   
   161  156  163 1   
   162  156  164 1   
   163  157  158 1   
   164  157  165 1   
   165  157  166 1   
   166  158  159 1   
   167  158  160 1   
   168  167  168 1   
   169  167  172 1   
   170  168  169 1   
   171  168  170 1   
   172  168  171 1   
   173  174  175 1   
   174  174  176 1   
   175  177  178 1   
   176  177  179 1   
@<TRIPOS>SUBSTRUCTURE
     1 MOL         1 TEMP              0 ****  ****    0 ROOT
