@<TRIPOS>MOLECULE
MOL
  175   173     1     0     0
SMALL
resp


@<TRIPOS>ATOM
      1 C1          0.7210    4.3430    5.2900 c3        1 MOL     -0.425809
      2 C2          0.0500    4.1910    3.9490 c         1 MOL      0.736688
      3 O1          0.6550    4.2120    2.8500 o         1 MOL     -0.575498
      4 H1         -0.0120    4.1880    6.0820 hc        1 MOL      0.109529
      5 H2          1.5190    3.6060    5.3850 hc        1 MOL      0.109529
      6 H3          1.1410    5.3460    5.3760 hc        1 MOL      0.109529
      7 N1         -1.2740    4.0700    3.9280 n         1 MOL     -0.694797
      8 C3         -2.0290    3.7470    2.7130 c3        1 MOL      0.373790
      9 C4         -2.3790    4.8880    1.7200 c         1 MOL      0.443509
     10 O2         -2.9540    5.8570    2.1880 o         1 MOL     -0.560766
     11 C5         -3.2560    2.9050    3.1260 c3        1 MOL     -0.211926
     12 C6         -4.0330    2.4670    1.9240 c         1 MOL      0.600741
     13 O3         -3.3760    1.8120    1.1020 o         1 MOL     -0.622280
     14 O4         -5.2940    2.6970    1.7680 o         1 MOL     -0.622280
     15 H4         -1.7360    4.1410    4.8200 hn        1 MOL      0.327211
     16 H5         -1.4030    3.0590    2.1450 h1        1 MOL      0.008086
     17 H6         -3.9630    3.5180    3.6970 hc        1 MOL      0.025525
     18 H7         -2.8870    2.0550    3.7010 hc        1 MOL      0.025525
     19 N2         -2.3480    4.6110    0.4180 n         1 MOL     -0.379216
     20 C7         -2.7810    5.5320   -0.6540 c3        1 MOL      0.361731
     21 C8         -4.0170    5.0560   -1.4790 c         1 MOL      0.367302
     22 O5         -4.5870    5.9560   -2.1570 o         1 MOL     -0.582689
     23 C9         -1.6180    5.7860   -1.6220 c3        1 MOL     -0.350554
     24 H8         -1.7840    3.8090    0.1650 hn        1 MOL      0.223157
     25 H9         -3.0850    6.4860   -0.2070 h1        1 MOL      0.000028
     26 H10        -1.9640    6.2600   -2.5410 hc        1 MOL      0.084449
     27 H11        -0.8750    6.4930   -1.2380 hc        1 MOL      0.084449
     28 H12        -1.1510    4.8290   -1.8820 hc        1 MOL      0.084449
     29 N3         -4.3330    3.7490   -1.5230 n         1 MOL     -0.140306
     30 C10        -5.1900    3.2050   -2.5890 c3        1 MOL     -0.004473
     31 C11        -6.2560    2.2690   -2.1190 c         1 MOL      0.340605
     32 O6         -7.0530    1.7980   -2.9150 o         1 MOL     -0.536485
     33 C12        -4.2770    2.5680   -3.6830 c3        1 MOL     -0.104761
     34 C13        -3.2060    1.5830   -3.1940 c         1 MOL      0.769938
     35 O7         -2.1570    1.4720   -3.8340 o         1 MOL     -0.687785
     36 O8         -3.4680    0.8470   -2.1650 o         1 MOL     -0.687785
     37 H13        -3.8940    3.1310   -0.8610 hn        1 MOL      0.091056
     38 H14        -5.6980    4.0170   -3.1180 h1        1 MOL      0.103095
     39 H15        -3.6690    3.3520   -4.1470 hc        1 MOL      0.013361
     40 H16        -4.8690    2.0440   -4.4330 hc        1 MOL      0.013361
     41 N4         -6.3610    1.8710   -0.8520 n         1 MOL     -0.086053
     42 C14        -7.3040    0.9040   -0.3790 c3        1 MOL     -0.131498
     43 C15        -7.1970   -0.5110   -1.0700 c         1 MOL      0.467725
     44 O9         -8.1690   -1.2360   -1.0930 o         1 MOL     -0.611211
     45 H17        -5.7920    2.3090   -0.1340 hn        1 MOL      0.102261
     46 H18        -8.2800    1.3760   -0.5180 h1        1 MOL      0.078064
     47 H19        -7.1210    0.8050    0.6900 h1        1 MOL      0.078064
     48 N5         -6.1040   -0.9730   -1.6890 n         1 MOL     -0.102051
     49 C16        -5.9860   -2.3780   -2.1690 c3        1 MOL     -0.057291
     50 C17        -5.8440   -3.4400   -1.1010 c         1 MOL      0.472547
     51 O10        -5.6440   -4.5720   -1.4400 o         1 MOL     -0.515107
     52 C18        -4.9330   -2.5350   -3.2260 c3        1 MOL     -0.138350
     53 C19        -3.5650   -2.5640   -2.6050 c         1 MOL      0.510952
     54 N6         -2.6790   -3.3390   -3.1810 n         1 MOL     -0.572459
     55 O11        -3.2410   -1.8980   -1.6370 o         1 MOL     -0.469097
     56 H20        -5.3190   -0.3580   -1.8500 hn        1 MOL      0.094914
     57 H21        -6.9230   -2.6760   -2.6370 h1        1 MOL      0.109004
     58 H22        -4.9260   -1.8970   -4.1000 hc        1 MOL      0.056373
     59 H23        -5.0630   -3.5270   -3.6490 hc        1 MOL      0.056373
     60 H24        -2.9670   -3.7700   -4.0490 hn        1 MOL      0.312599
     61 H25        -1.7440   -3.2110   -2.8260 hn        1 MOL      0.312599
     62 N7         -5.9400   -3.0230    0.2050 n         1 MOL     -0.178208
     63 C20        -6.0000   -3.9320    1.3720 c3        1 MOL     -0.476402
     64 C21        -4.6970   -4.4530    1.9040 c         1 MOL      0.585645
     65 O12        -4.7460   -5.2700    2.7990 o         1 MOL     -0.603777
     66 H26        -6.1100   -2.0350    0.3290 hn        1 MOL      0.219569
     67 H27        -6.5830   -4.8000    1.0900 h1        1 MOL      0.182287
     68 H28        -6.4530   -3.3800    2.1900 h1        1 MOL      0.182287
     69 N8         -3.6230   -4.0890    1.3380 n         1 MOL     -0.031896
     70 C22        -2.2600   -4.5500    1.6480 c3        1 MOL     -0.470801
     71 C23        -1.2630   -3.4270    1.5740 c         1 MOL      0.716877
     72 O13        -1.4570   -2.4880    0.8030 o         1 MOL     -0.600014
     73 C24        -1.8480   -5.7230    0.7010 c3        1 MOL      0.752004
     74 C25        -2.7170   -6.9500    0.8180 c3        1 MOL     -0.456267
     75 O14        -1.8710   -5.3020   -0.6360 oh        1 MOL     -0.694267
     76 H29        -3.6100   -3.3400    0.6650 hn        1 MOL      0.090883
     77 H30        -2.2650   -5.0180    2.6350 h1        1 MOL      0.123161
     78 H31        -0.8600   -6.1260    0.9480 h1        1 MOL     -0.096261
     79 H32        -1.6920   -4.3680   -0.7260 ho        1 MOL      0.389713
     80 H33        -2.2940   -7.7500    0.2040 hc        1 MOL      0.107183
     81 H34        -2.6360   -7.1740    1.8790 hc        1 MOL      0.107183
     82 H35        -3.7210   -6.7060    0.4890 hc        1 MOL      0.107183
     83 N9         -0.1730   -3.5190    2.3580 n         1 MOL     -0.500992
     84 C26         0.9500   -2.5640    2.2730 c3        1 MOL      0.043527
     85 C27         1.6890   -2.8470    0.9260 c         1 MOL      0.386464
     86 O15         2.1420   -3.9830    0.7100 o         1 MOL     -0.544987
     87 C28         1.8840   -2.7560    3.5310 c3        1 MOL      0.160154
     88 C29         1.3940   -2.0210    4.7780 c3        1 MOL     -0.031863
     89 C30         3.2850   -2.2240    3.2640 c3        1 MOL     -0.104464
     90 C31         2.0860   -2.2520    6.1060 c3        1 MOL     -0.100683
     91 H36        -0.0960   -4.2290    3.0680 hn        1 MOL      0.283955
     92 H37         0.5710   -1.5440    2.2580 h1        1 MOL     -0.029671
     93 H38         1.9440   -3.8290    3.7250 hc        1 MOL     -0.005953
     94 H39         0.3320   -2.2620    4.8940 hc        1 MOL      0.011000
     95 H40         1.4310   -0.9540    4.5590 hc        1 MOL      0.011000
     96 H41         3.7490   -2.5930    2.3480 hc        1 MOL      0.017802
     97 H42         3.2510   -1.1380    3.1870 hc        1 MOL      0.017802
     98 H43         3.9460   -2.6420    4.0170 hc        1 MOL      0.017802
     99 H44         1.6860   -1.5430    6.8360 hc        1 MOL      0.022161
    100 H45         1.9950   -3.2600    6.5070 hc        1 MOL      0.022161
    101 H46         3.1650   -2.1760    6.0170 hc        1 MOL      0.022161
    102 N10         1.7580   -1.8470    0.0420 n         1 MOL     -0.060036
    103 C32         2.6210   -1.8700   -1.1270 c3        1 MOL      0.023859
    104 C33         4.0930   -1.4150   -0.9000 c         1 MOL      0.465686
    105 O16         4.3440   -0.7930    0.1560 o         1 MOL     -0.388419
    106 C34         1.9570   -1.1400   -2.3400 c3        1 MOL     -0.292355
    107 C35         0.5210   -1.5380   -2.3600 c         1 MOL      0.795210
    108 O17        -0.3580   -0.8360   -1.8110 o         1 MOL     -0.711284
    109 O18         0.1580   -2.5540   -3.0660 o         1 MOL     -0.711284
    110 H47         1.2460   -1.0090    0.2550 hn        1 MOL      0.094842
    111 H48         2.6290   -2.9070   -1.4790 h1        1 MOL      0.056860
    112 H49         2.3940   -1.3610   -3.3180 hc        1 MOL      0.089622
    113 H50         1.9670   -0.0600   -2.1560 hc        1 MOL      0.089622
    114 N11         5.0590   -1.7020   -1.7260 n         1 MOL     -0.635244
    115 C36         6.4070   -1.2030   -1.4980 c3        1 MOL      0.440968
    116 C37         6.6830    0.2740   -1.4500 c         1 MOL      0.288157
    117 O19         7.4290    0.5850   -0.5130 o         1 MOL     -0.471052
    118 C38         7.4230   -1.8830   -2.4630 c3        1 MOL     -0.128463
    119 C39         8.9390   -1.8220   -2.1300 ca        1 MOL     -0.031021
    120 C40         9.4410   -2.2970   -0.8970 ca        1 MOL     -0.093089
    121 C41         9.7680   -1.0010   -2.9020 ca        1 MOL     -0.093089
    122 C42        10.7650   -2.0630   -0.5500 ca        1 MOL     -0.105963
    123 C43        11.0850   -0.7870   -2.5370 ca        1 MOL     -0.105963
    124 C44        11.6270   -1.3520   -1.3260 ca        1 MOL     -0.136395
    125 H51         4.8220   -2.0840   -2.6280 hn        1 MOL      0.317612
    126 H52         6.7270   -1.4380   -0.4890 h1        1 MOL      0.041072
    127 H53         7.2590   -1.6110   -3.5130 hc        1 MOL      0.039811
    128 H54         7.1070   -2.9220   -2.3720 hc        1 MOL      0.039811
    129 H55         8.7280   -2.8020   -0.2690 ha        1 MOL      0.097324
    130 H56         9.3950   -0.6370   -3.8490 ha        1 MOL      0.097324
    131 H57        11.1180   -2.3950    0.4150 ha        1 MOL      0.098923
    132 H58        11.6690   -0.1520   -3.1770 ha        1 MOL      0.098923
    133 H59        12.6210   -1.0470   -1.0090 ha        1 MOL      0.117703
    134 N12         6.0360    1.1930   -2.2050 n         1 MOL     -0.101860
    135 C45         5.8580    2.6010   -1.8910 c3        1 MOL     -0.031515
    136 C46         5.3770    2.8780   -0.4580 c         1 MOL      0.254923
    137 O20         5.7740    3.8940    0.0930 o         1 MOL     -0.482139
    138 C47         4.7950    3.1220   -2.9280 c3        1 MOL      0.091445
    139 C48         5.0460    2.2110   -4.1640 c3        1 MOL     -0.054501
    140 C49         5.3040    0.8490   -3.4240 c3        1 MOL     -0.077010
    141 H60         6.7320    3.2320   -2.1000 h1        1 MOL      0.074686
    142 H61         3.7560    2.9890   -2.6280 hc        1 MOL      0.011767
    143 H62         4.9210    4.1510   -3.2560 hc        1 MOL      0.011767
    144 H63         4.1380    2.2140   -4.7730 hc        1 MOL      0.033803
    145 H64         5.8650    2.5920   -4.7810 hc        1 MOL      0.033803
    146 H65         4.3330    0.3620   -3.2890 h1        1 MOL      0.041045
    147 H66         5.9600    0.2850   -4.0940 h1        1 MOL      0.041045
    148 N13         4.5450    2.0230    0.1490 n         1 MOL     -0.088607
    149 C50         4.0060    2.3270    1.5230 c3        1 MOL     -0.063372
    150 C51         4.9680    1.7230    2.6100 c         1 MOL      0.411183
    151 O21         5.2360    2.3430    3.6700 o         1 MOL     -0.581056
    152 C52         2.5340    1.7720    1.5510 c3        1 MOL      0.064083
    153 C53         1.6260    2.1940    0.3840 c3        1 MOL     -0.281939
    154 C54         0.1810    1.6780    0.5380 c         1 MOL      0.598519
    155 O22        -0.7330    2.1760   -0.1900 o         1 MOL     -0.634167
    156 O23        -0.0420    0.5820    1.1320 o         1 MOL     -0.634167
    157 H67         4.0630    1.2430   -0.2600 hn        1 MOL      0.184022
    158 H68         3.8420    3.3890    1.7380 h1        1 MOL      0.105730
    159 H69         2.1120    2.1150    2.4990 hc        1 MOL      0.022248
    160 H70         2.5540    0.6840    1.6320 hc        1 MOL      0.022248
    161 H71         2.0620    1.7280   -0.5100 hc        1 MOL      0.095100
    162 H72         1.5970    3.2870    0.3970 hc        1 MOL      0.095100
    163 N14         5.6190    0.6110    2.3900 n         1 MOL     -0.022080
    164 C55         6.5960   -0.0010    3.2350 c3        1 MOL     -0.173237
    165 H73         7.4720   -0.2690    2.6440 h1        1 MOL      0.067601
    166 H74         6.8890    0.6970    4.0200 h1        1 MOL      0.067601
    167 H75         6.1750   -0.9000    3.6870 h1        1 MOL      0.067601
    168 H76         5.3750    0.0840    1.5630 hn        1 MOL      0.079014
    169 Ca1        -2.1630   -0.0810   -0.0960 Ca        1 MOL      1.608508
    170 O24        -1.9290   -0.3410    2.7100 oh        1 MOL     -0.786459
    171 H77        -2.0210   -0.0940    3.6340 ho        1 MOL      0.386253
    172 H78        -1.0090   -0.1440    2.5050 ho        1 MOL      0.386253
    173 O25        -4.4710   -0.7350    1.1940 oh        1 MOL     -0.786459
    174 H79        -5.1850   -0.9820    1.7880 ho        1 MOL      0.386253
    175 H80        -4.2580    0.1580    1.4450 ho        1 MOL      0.386253
@<TRIPOS>BOND
     1    1    2 1   
     2    1    4 1   
     3    1    5 1   
     4    1    6 1   
     5    2    3 2   
     6    2    7 1   
     7    7    8 1   
     8    7   15 1   
     9    8    9 1   
    10    8   11 1   
    11    8   16 1   
    12    9   10 2   
    13    9   19 1   
    14   11   12 1   
    15   11   17 1   
    16   11   18 1   
    17   12   13 1   
    18   12   14 1   
    19   19   20 1   
    20   19   24 1   
    21   20   21 1   
    22   20   23 1   
    23   20   25 1   
    24   21   22 2   
    25   21   29 1   
    26   23   26 1   
    27   23   27 1   
    28   23   28 1   
    29   29   30 1   
    30   29   37 1   
    31   30   31 1   
    32   30   33 1   
    33   30   38 1   
    34   31   32 2   
    35   31   41 1   
    36   33   34 1   
    37   33   39 1   
    38   33   40 1   
    39   34   35 1   
    40   34   36 1   
    41   41   42 1   
    42   41   45 1   
    43   42   43 1   
    44   42   46 1   
    45   42   47 1   
    46   43   44 2   
    47   43   48 1   
    48   48   49 1   
    49   48   56 1   
    50   49   50 1   
    51   49   52 1   
    52   49   57 1   
    53   50   51 2   
    54   50   62 1   
    55   52   53 1   
    56   52   58 1   
    57   52   59 1   
    58   53   54 1   
    59   53   55 2   
    60   54   60 1   
    61   54   61 1   
    62   62   63 1   
    63   62   66 1   
    64   63   64 1   
    65   63   67 1   
    66   63   68 1   
    67   64   65 2   
    68   64   69 1   
    69   69   70 1   
    70   69   76 1   
    71   70   71 1   
    72   70   73 1   
    73   70   77 1   
    74   71   72 2   
    75   71   83 1   
    76   73   74 1   
    77   73   75 1   
    78   73   78 1   
    79   74   80 1   
    80   74   81 1   
    81   74   82 1   
    82   75   79 1   
    83   83   84 1   
    84   83   91 1   
    85   84   85 1   
    86   84   87 1   
    87   84   92 1   
    88   85   86 2   
    89   85  102 1   
    90   87   88 1   
    91   87   89 1   
    92   87   93 1   
    93   88   90 1   
    94   88   94 1   
    95   88   95 1   
    96   89   96 1   
    97   89   97 1   
    98   89   98 1   
    99   90   99 1   
   100   90  100 1   
   101   90  101 1   
   102  102  103 1   
   103  102  110 1   
   104  103  104 1   
   105  103  106 1   
   106  103  111 1   
   107  104  105 2   
   108  104  114 1   
   109  106  107 1   
   110  106  112 1   
   111  106  113 1   
   112  107  108 1   
   113  107  109 1   
   114  114  115 1   
   115  114  125 1   
   116  115  116 1   
   117  115  118 1   
   118  115  126 1   
   119  116  117 2   
   120  116  134 1   
   121  118  119 1   
   122  118  127 1   
   123  118  128 1   
   124  119  120 ar  
   125  119  121 ar  
   126  120  122 ar  
   127  120  129 1   
   128  121  123 ar  
   129  121  130 1   
   130  122  124 ar  
   131  122  131 1   
   132  123  124 ar  
   133  123  132 1   
   134  124  133 1   
   135  134  135 1   
   136  134  140 1   
   137  135  136 1   
   138  135  138 1   
   139  135  141 1   
   140  136  137 2   
   141  136  148 1   
   142  138  139 1   
   143  138  142 1   
   144  138  143 1   
   145  139  140 1   
   146  139  144 1   
   147  139  145 1   
   148  140  146 1   
   149  140  147 1   
   150  148  149 1   
   151  148  157 1   
   152  149  150 1   
   153  149  152 1   
   154  149  158 1   
   155  150  151 2   
   156  150  163 1   
   157  152  153 1   
   158  152  159 1   
   159  152  160 1   
   160  153  154 1   
   161  153  161 1   
   162  153  162 1   
   163  154  155 1   
   164  154  156 1   
   165  163  164 1   
   166  163  168 1   
   167  164  165 1   
   168  164  166 1   
   169  164  167 1   
   170  170  171 1   
   171  170  172 1   
   172  173  174 1   
   173  173  175 1   
@<TRIPOS>SUBSTRUCTURE
     1 MOL         1 TEMP              0 ****  ****    0 ROOT
