@<TRIPOS>MOLECULE
MOL
  186   183     1     0     0
SMALL
resp


@<TRIPOS>ATOM
      1 C1          1.6590   -2.7510    6.4540 c3        1 MOL     -0.532768
      2 C2          1.5330   -2.7380    4.8430 c         1 MOL      0.717481
      3 O1          1.1230   -1.7000    4.2550 o         1 MOL     -0.618626
      4 H1          0.6780   -2.5760    6.8960 hc        1 MOL      0.146354
      5 H2          2.0380   -3.7190    6.7820 hc        1 MOL      0.146354
      6 H3          2.3450   -1.9660    6.7710 hc        1 MOL      0.146354
      7 N1          2.1870   -3.7000    4.1610 n         1 MOL     -0.601852
      8 C3          2.6440   -3.6460    2.7520 c3        1 MOL      0.237107
      9 C4          2.4430   -4.8340    1.8710 c         1 MOL      0.399215
     10 O2          2.7510   -5.9640    2.2720 o         1 MOL     -0.565449
     11 C5          4.1180   -3.2670    2.7160 c3        1 MOL     -0.173545
     12 C6          4.5810   -2.9590    1.2940 c         1 MOL      0.619997
     13 O3          4.1170   -1.9460    0.7560 o         1 MOL     -0.625987
     14 O4          5.4370   -3.7220    0.8350 o         1 MOL     -0.625987
     15 H4          2.6880   -4.3900    4.7020 hn        1 MOL      0.308433
     16 H5          2.0980   -2.8510    2.2490 h1        1 MOL      0.063026
     17 H6          4.7060   -4.1270    3.0310 hc        1 MOL      0.023675
     18 H7          4.2640   -2.3900    3.3470 hc        1 MOL      0.023675
     19 N2          2.0990   -4.7060    0.5530 n         1 MOL     -0.021259
     20 C7          2.1510   -5.7680   -0.5110 c3        1 MOL     -0.206564
     21 C8          3.0100   -5.3970   -1.7450 c         1 MOL      0.420657
     22 O5          3.2020   -6.2520   -2.6390 o         1 MOL     -0.558913
     23 C9          0.8030   -6.3700   -0.8480 c3        1 MOL      0.189929
     24 C10        -0.1390   -5.2020   -1.3110 c3        1 MOL     -0.143324
     25 C11         0.1560   -7.0320    0.3500 c3        1 MOL     -0.212746
     26 C12        -1.6260   -5.5930   -1.4850 c3        1 MOL     -0.300840
     27 H8          1.7130   -3.8060    0.3230 hn        1 MOL     -0.031686
     28 H9          2.8020   -6.4680    0.0240 h1        1 MOL      0.137568
     29 H10         0.9240   -7.1080   -1.6500 hc        1 MOL      0.006308
     30 H11         0.1590   -4.6880   -2.2250 hc        1 MOL      0.122005
     31 H12        -0.1370   -4.3470   -0.6320 hc        1 MOL      0.122005
     32 H13         0.8920   -7.6120    0.9090 hc        1 MOL      0.041807
     33 H14        -0.2380   -6.1640    0.8860 hc        1 MOL      0.041807
     34 H15        -0.7390   -7.5940    0.0700 hc        1 MOL      0.041807
     35 H16        -1.6800   -6.4600   -2.1540 hc        1 MOL      0.080144
     36 H17        -2.1240   -5.7670   -0.5420 hc        1 MOL      0.080144
     37 H18        -2.0750   -4.7560   -2.0170 hc        1 MOL      0.080144
     38 N3          3.4550   -4.1490   -1.8420 n         1 MOL     -0.277297
     39 C13         3.9890   -3.6310   -3.0870 c3        1 MOL     -0.000254
     40 C14         5.2680   -2.7570   -2.9660 c         1 MOL      0.338146
     41 O6          5.7630   -2.3220   -4.0230 o         1 MOL     -0.522064
     42 C15         2.9320   -2.8860   -3.9250 c3        1 MOL     -0.105874
     43 C16         2.4230   -1.5820   -3.3940 c         1 MOL      0.728799
     44 O7          2.6900   -1.2220   -2.2570 o         1 MOL     -0.705612
     45 O8          1.5880   -0.9350   -4.0840 o         1 MOL     -0.705612
     46 H19         3.2300   -3.4610   -1.1400 hn        1 MOL      0.321599
     47 H20         4.2820   -4.5050   -3.6730 h1        1 MOL      0.102456
     48 H21         2.0240   -3.4920   -4.0120 hc        1 MOL      0.018641
     49 H22         3.4130   -2.7610   -4.8980 hc        1 MOL      0.018641
     50 N4          5.8620   -2.5630   -1.7720 n         1 MOL     -0.090364
     51 C17         7.2110   -2.0300   -1.5080 c3        1 MOL     -0.058757
     52 C18         7.3460   -0.5500   -1.8040 c         1 MOL      0.331447
     53 O9          8.4790   -0.1410   -2.0280 o         1 MOL     -0.563753
     54 H23         5.4050   -2.9450   -0.9490 hn        1 MOL      0.060553
     55 H24         7.9420   -2.6600   -1.9990 h1        1 MOL      0.082007
     56 H25         7.3180   -2.2270   -0.4410 h1        1 MOL      0.082007
     57 N5          6.2860    0.2290   -1.9520 n         1 MOL     -0.025178
     58 C19         6.3430    1.5310   -2.6670 c3        1 MOL      0.056030
     59 C20         6.8920    2.6190   -1.8330 c         1 MOL      0.360870
     60 O10         7.3240    3.6790   -2.3650 o         1 MOL     -0.542149
     61 C21         5.0190    1.7540   -3.3160 c3        1 MOL     -0.132821
     62 C22         3.8270    1.8670   -2.2580 c         1 MOL      0.642913
     63 O11         3.9360    1.4050   -1.1220 o         1 MOL     -0.666988
     64 O12         2.7440    2.5310   -2.5370 o         1 MOL     -0.666988
     65 H26         5.3480   -0.0390   -1.6950 hn        1 MOL     -0.005658
     66 H27         7.1160    1.4360   -3.4300 h1        1 MOL      0.072152
     67 H28         4.9780    0.9570   -4.0600 hc        1 MOL      0.062520
     68 H29         5.0070    2.6470   -3.9340 hc        1 MOL      0.062520
     69 N6          6.6230    2.5340   -0.5230 n         1 MOL     -0.132184
     70 C23         6.9290    3.5290    0.5400 c3        1 MOL     -0.339596
     71 C24         5.7480    4.3840    1.0020 c         1 MOL      0.662214
     72 O13         6.0440    5.4060    1.6000 o         1 MOL     -0.593335
     73 H30         6.0420    1.7870   -0.1760 hn        1 MOL      0.143866
     74 H31         7.6780    4.2220    0.1460 h1        1 MOL      0.139410
     75 H32         7.1660    2.9010    1.3930 h1        1 MOL      0.139410
     76 N7          4.4710    3.9670    0.7820 n         1 MOL     -0.362864
     77 C25         3.2800    4.5650    1.2920 c3        1 MOL     -0.046152
     78 C26         2.1740    3.4660    1.5600 c         1 MOL      0.436271
     79 O14         2.1280    2.4360    0.8420 o         1 MOL     -0.499134
     80 C27         2.7900    5.5770    0.2730 c3        1 MOL     -0.075132
     81 C28         3.6620    6.8120    0.1410 c3        1 MOL     -0.365237
     82 C29         2.9650    7.9590   -0.5780 c         1 MOL      0.681251
     83 N8          2.7800    7.8850   -1.8770 n         1 MOL     -0.815196
     84 O15         2.5050    8.9000    0.0150 o         1 MOL     -0.588527
     85 H33         4.3520    3.0300    0.4150 hn        1 MOL      0.251433
     86 H34         3.4530    5.0230    2.2630 h1        1 MOL      0.059601
     87 H35         1.7710    5.8920    0.5040 hc        1 MOL      0.101242
     88 H36         2.6800    5.0190   -0.6600 hc        1 MOL      0.101242
     89 H37         4.5340    6.4540   -0.4100 hc        1 MOL      0.142434
     90 H38         4.0000    7.0470    1.1540 hc        1 MOL      0.142434
     91 H39         3.0580    7.0730   -2.4160 hn        1 MOL      0.370188
     92 H40         2.3570    8.7150   -2.2770 hn        1 MOL      0.370188
     93 N9          1.2470    3.6970    2.5150 n         1 MOL     -0.448017
     94 C30         0.0520    2.8050    2.7310 c3        1 MOL      0.095133
     95 C31        -1.0480    3.1290    1.6770 c         1 MOL      0.486237
     96 O16        -1.4690    4.2570    1.7360 o         1 MOL     -0.580475
     97 C32        -0.2940    2.8210    4.2100 c3        1 MOL      0.144707
     98 C33        -1.5560    2.0460    4.5550 c3        1 MOL     -0.347670
     99 C34         0.7640    2.2110    5.1250 c3        1 MOL     -0.347670
    100 H41         1.2540    4.6290    2.8990 hn        1 MOL      0.277749
    101 H42         0.4060    1.8180    2.4240 h1        1 MOL      0.108462
    102 H43        -0.4200    3.8690    4.4620 hc        1 MOL      0.014443
    103 H44        -1.4230    0.9870    4.3590 hc        1 MOL      0.085643
    104 H45        -1.8330    2.1450    5.6100 hc        1 MOL      0.085643
    105 H46        -2.3020    2.5150    3.9030 hc        1 MOL      0.085643
    106 H47         1.7640    2.4340    4.7600 hc        1 MOL      0.085643
    107 H48         0.6070    2.2830    6.2050 hc        1 MOL      0.085643
    108 H49         0.9260    1.1550    4.8790 hc        1 MOL      0.085643
    109 N10        -1.5220    2.1730    0.8930 n         1 MOL     -0.122819
    110 C35        -2.6900    2.3290    0.0440 c3        1 MOL      0.048246
    111 C36        -4.1240    2.2050    0.7640 c         1 MOL      0.313309
    112 O17        -4.1540    1.6010    1.7930 o         1 MOL     -0.414356
    113 C37        -2.5370    1.2810   -1.0570 c3        1 MOL     -0.081917
    114 C38        -3.4790    1.3790   -2.2110 c         1 MOL      0.653990
    115 N11        -3.7410    2.5910   -2.6460 n         1 MOL     -0.798868
    116 O18        -4.0620    0.4050   -2.6420 o         1 MOL     -0.525629
    117 H50        -0.9920    1.3280    0.7300 hn        1 MOL      0.113800
    118 H51        -2.5600    3.3470   -0.3180 h1        1 MOL      0.002070
    119 H52        -2.6240    0.2710   -0.6470 hc        1 MOL      0.080810
    120 H53        -1.5330    1.3740   -1.4760 hc        1 MOL      0.080810
    121 H54        -3.3880    3.4660   -2.2970 hn        1 MOL      0.353515
    122 H55        -4.3320    2.5800   -3.4670 hn        1 MOL      0.353515
    123 N12        -5.2390    2.5090    0.1020 n         1 MOL     -0.056938
    124 C39        -6.5560    2.2800    0.5660 c3        1 MOL     -0.071067
    125 C40        -6.9230    0.7840    0.6940 c         1 MOL      0.417021
    126 O19        -7.8430    0.4350    1.4450 o         1 MOL     -0.553875
    127 C41        -7.7160    3.0940   -0.0040 c3        1 MOL     -0.168406
    128 C42        -7.9330    2.7090   -1.4270 ca        1 MOL      0.114973
    129 C43        -8.8330    1.6610   -1.8320 ca        1 MOL     -0.248690
    130 C44        -7.2010    3.4630   -2.3290 ca        1 MOL     -0.248690
    131 C45        -8.7450    1.2650   -3.1740 ca        1 MOL     -0.227860
    132 C46        -7.3210    3.1450   -3.7210 ca        1 MOL     -0.227860
    133 C47        -7.9670    1.9540   -4.1080 ca        1 MOL      0.352639
    134 O20        -7.9200    1.6100   -5.4220 oh        1 MOL     -0.540490
    135 H56        -5.1710    3.0760   -0.7300 hn        1 MOL      0.060828
    136 H57        -6.4410    2.6510    1.5900 h1        1 MOL      0.075589
    137 H58        -7.6170    4.1770   -0.0440 hc        1 MOL      0.073675
    138 H59        -8.6590    2.9280    0.5210 hc        1 MOL      0.073675
    139 H60        -9.3300    1.0990   -1.0570 ha        1 MOL      0.180459
    140 H61        -6.4600    4.1530   -1.9710 ha        1 MOL      0.180459
    141 H62        -9.2320    0.3460   -3.4740 ha        1 MOL      0.134422
    142 H63        -6.8150    3.7640   -4.4490 ha        1 MOL      0.134422
    143 H64        -8.2590    0.7190   -5.4870 ho        1 MOL      0.419836
    144 N13        -6.1950   -0.1480    0.0170 n         1 MOL     -0.053983
    145 C48        -6.1670   -1.6260    0.1420 c3        1 MOL     -0.214760
    146 C49        -5.0830   -2.2570    1.0300 c         1 MOL      0.352383
    147 O21        -5.2040   -3.4300    1.3740 o         1 MOL     -0.515945
    148 C50        -6.0610   -2.3320   -1.2350 c3        1 MOL      0.139727
    149 C51        -7.2080   -1.9510   -2.1700 c3        1 MOL     -0.053804
    150 C52        -7.4210   -2.8380   -3.4120 c         1 MOL      0.649867
    151 O22        -8.1470   -3.8420   -3.2730 o         1 MOL     -0.733679
    152 O23        -6.7870   -2.5230   -4.4270 o         1 MOL     -0.733679
    153 H65        -5.6820    0.2430   -0.7650 hn        1 MOL      0.185776
    154 H66        -7.1240   -1.9750    0.5370 h1        1 MOL      0.131342
    155 H67        -6.1300   -3.4190   -1.0990 hc        1 MOL      0.009126
    156 H68        -5.1070   -2.0520   -1.6800 hc        1 MOL      0.009126
    157 H69        -6.9520   -0.9470   -2.5100 hc        1 MOL     -0.029570
    158 H70        -8.1330   -1.9160   -1.5920 hc        1 MOL     -0.029570
    159 N14        -4.3330   -1.3700    1.6390 n         1 MOL     -0.032418
    160 C53        -3.5320   -1.7230    2.8820 c3        1 MOL     -0.234937
    161 C54        -4.0960   -1.1140    4.1920 c         1 MOL      0.555374
    162 O24        -3.6170   -1.4480    5.2960 o         1 MOL     -0.545470
    163 C55        -2.0530   -1.3200    2.6830 c3        1 MOL     -0.048000
    164 C56        -1.3130   -2.1710    1.5940 c3        1 MOL     -0.196331
    165 C57        -0.0960   -1.4300    1.0230 c         1 MOL      0.861643
    166 O25        -0.0510   -0.1840    0.9190 o         1 MOL     -0.787305
    167 O26         0.7590   -2.1390    0.4320 o         1 MOL     -0.787305
    168 H71        -4.5060   -0.4010    1.4150 hn        1 MOL     -0.012946
    169 H72        -3.4880   -2.8000    3.0470 h1        1 MOL      0.130678
    170 H73        -1.5510   -1.3640    3.6470 hc        1 MOL      0.079072
    171 H74        -1.9730   -0.2450    2.5210 hc        1 MOL      0.079072
    172 H75        -1.9800   -2.3910    0.7600 hc        1 MOL      0.087962
    173 H76        -0.9680   -3.1370    1.9800 hc        1 MOL      0.087962
    174 N15        -5.1980   -0.3150    4.1000 n         1 MOL     -0.358300
    175 C58        -5.7790    0.4320    5.2660 c3        1 MOL     -0.044654
    176 H77        -5.4560   -0.0370    6.1950 h1        1 MOL      0.051165
    177 H78        -5.4360    1.4660    5.2430 h1        1 MOL      0.051165
    178 H79        -6.8670    0.4090    5.2070 h1        1 MOL      0.051165
    179 H80        -5.5820   -0.0240    3.2070 hn        1 MOL      0.287045
    180 Ca1         2.3980   -0.1210    0.1400 Ca        1 MOL      1.654893
    181 O27         2.6590   -0.2200    2.7420 oh        1 MOL     -0.860383
    182 H81         2.0400   -0.6990    3.2870 ho        1 MOL      0.414828
    183 H82         3.4870   -0.2750    3.2180 ho        1 MOL      0.414828
    184 O28         0.8650    0.9990   -1.9370 oh        1 MOL     -0.860383
    185 H83         1.5630    1.6520   -1.9910 ho        1 MOL      0.414828
    186 H84         1.2150    0.2490   -2.4180 ho        1 MOL      0.414828
@<TRIPOS>BOND
     1    1    2 1   
     2    1    4 1   
     3    1    5 1   
     4    1    6 1   
     5    2    3 2   
     6    2    7 1   
     7    7    8 1   
     8    7   15 1   
     9    8    9 1   
    10    8   11 1   
    11    8   16 1   
    12    9   10 2   
    13    9   19 1   
    14   11   12 1   
    15   11   17 1   
    16   11   18 1   
    17   12   13 1   
    18   12   14 1   
    19   19   20 1   
    20   19   27 1   
    21   20   21 1   
    22   20   23 1   
    23   20   28 1   
    24   21   22 2   
    25   21   38 1   
    26   23   24 1   
    27   23   25 1   
    28   23   29 1   
    29   24   26 1   
    30   24   30 1   
    31   24   31 1   
    32   25   32 1   
    33   25   33 1   
    34   25   34 1   
    35   26   35 1   
    36   26   36 1   
    37   26   37 1   
    38   38   39 1   
    39   38   46 1   
    40   39   40 1   
    41   39   42 1   
    42   39   47 1   
    43   40   41 2   
    44   40   50 1   
    45   42   43 1   
    46   42   48 1   
    47   42   49 1   
    48   43   44 1   
    49   43   45 1   
    50   50   51 1   
    51   50   54 1   
    52   51   52 1   
    53   51   55 1   
    54   51   56 1   
    55   52   53 2   
    56   52   57 1   
    57   57   58 1   
    58   57   65 1   
    59   58   59 1   
    60   58   61 1   
    61   58   66 1   
    62   59   60 2   
    63   59   69 1   
    64   61   62 1   
    65   61   67 1   
    66   61   68 1   
    67   62   63 1   
    68   62   64 1   
    69   69   70 1   
    70   69   73 1   
    71   70   71 1   
    72   70   74 1   
    73   70   75 1   
    74   71   72 2   
    75   71   76 1   
    76   76   77 1   
    77   76   85 1   
    78   77   78 1   
    79   77   80 1   
    80   77   86 1   
    81   78   79 2   
    82   78   93 1   
    83   80   81 1   
    84   80   87 1   
    85   80   88 1   
    86   81   82 1   
    87   81   89 1   
    88   81   90 1   
    89   82   83 1   
    90   82   84 2   
    91   83   91 1   
    92   83   92 1   
    93   93   94 1   
    94   93  100 1   
    95   94   95 1   
    96   94   97 1   
    97   94  101 1   
    98   95   96 2   
    99   95  109 1   
   100   97   98 1   
   101   97   99 1   
   102   97  102 1   
   103   98  103 1   
   104   98  104 1   
   105   98  105 1   
   106   99  106 1   
   107   99  107 1   
   108   99  108 1   
   109  109  110 1   
   110  109  117 1   
   111  110  111 1   
   112  110  113 1   
   113  110  118 1   
   114  111  112 2   
   115  111  123 1   
   116  113  114 1   
   117  113  119 1   
   118  113  120 1   
   119  114  115 1   
   120  114  116 2   
   121  115  121 1   
   122  115  122 1   
   123  123  124 1   
   124  123  135 1   
   125  124  125 1   
   126  124  127 1   
   127  124  136 1   
   128  125  126 2   
   129  125  144 1   
   130  127  128 1   
   131  127  137 1   
   132  127  138 1   
   133  128  129 ar  
   134  128  130 ar  
   135  129  131 ar  
   136  129  139 1   
   137  130  132 ar  
   138  130  140 1   
   139  131  133 ar  
   140  131  141 1   
   141  132  133 ar  
   142  132  142 1   
   143  133  134 1   
   144  134  143 1   
   145  144  145 1   
   146  144  153 1   
   147  145  146 1   
   148  145  148 1   
   149  145  154 1   
   150  146  147 2   
   151  146  159 1   
   152  148  149 1   
   153  148  155 1   
   154  148  156 1   
   155  149  150 1   
   156  149  157 1   
   157  149  158 1   
   158  150  151 1   
   159  150  152 1   
   160  159  160 1   
   161  159  168 1   
   162  160  161 1   
   163  160  163 1   
   164  160  169 1   
   165  161  162 2   
   166  161  174 1   
   167  163  164 1   
   168  163  170 1   
   169  163  171 1   
   170  164  165 1   
   171  164  172 1   
   172  164  173 1   
   173  165  166 1   
   174  165  167 1   
   175  174  175 1   
   176  174  179 1   
   177  175  176 1   
   178  175  177 1   
   179  175  178 1   
   180  181  182 1   
   181  181  183 1   
   182  184  185 1   
   183  184  186 1   
@<TRIPOS>SUBSTRUCTURE
     1 MOL         1 TEMP              0 ****  ****    0 ROOT
