@<TRIPOS>MOLECULE
MOL
  175   173     1     0     0
SMALL
resp


@<TRIPOS>ATOM
      1 C1          0.1340   -1.7550    6.2470 c3        1 MOL     -0.453338
      2 C2          0.3060   -1.9950    4.6810 c         1 MOL      0.691966
      3 O1         -0.3040   -2.8260    4.0060 o         1 MOL     -0.564073
      4 H1         -0.9270   -1.7120    6.4930 hc        1 MOL      0.116439
      5 H2          0.6000   -2.5750    6.7940 hc        1 MOL      0.116439
      6 H3          0.6100   -0.8150    6.5260 hc        1 MOL      0.116439
      7 N1          1.3110   -1.3460    4.1220 n         1 MOL     -0.512357
      8 C3          1.7100   -1.3500    2.7100 c3        1 MOL      0.117816
      9 C4          2.3220   -2.7340    2.2800 c         1 MOL      0.568919
     10 O2          3.3410   -3.0870    2.8980 o         1 MOL     -0.599190
     11 C5          2.7510   -0.2400    2.4380 c3        1 MOL     -0.370199
     12 C6          3.2550   -0.1960    0.9160 c         1 MOL      0.752875
     13 O3          2.5790   -0.9130    0.1120 o         1 MOL     -0.672701
     14 O4          4.0840    0.6770    0.5630 o         1 MOL     -0.672701
     15 H4          1.7970   -0.7240    4.7510 hn        1 MOL      0.276506
     16 H5          0.8030   -1.1600    2.1380 h1        1 MOL      0.036643
     17 H6          3.6030   -0.4020    3.1030 hc        1 MOL      0.097088
     18 H7          2.2300    0.6920    2.6290 hc        1 MOL      0.097088
     19 N2          1.8260   -3.4170    1.2720 n         1 MOL     -0.331378
     20 C7          2.2090   -4.7350    0.7840 c3        1 MOL      0.256672
     21 C8          3.3700   -4.6690   -0.2560 c         1 MOL      0.192034
     22 O5          3.9370   -5.7440   -0.5360 o         1 MOL     -0.528326
     23 C9          0.9990   -5.3400    0.1920 c3        1 MOL     -0.241865
     24 H8          0.9600   -3.1540    0.8410 hn        1 MOL      0.196275
     25 H9          2.5690   -5.2880    1.6430 h1        1 MOL      0.018024
     26 H10         1.2220   -6.3850   -0.0030 hc        1 MOL      0.068888
     27 H11         0.2030   -5.3970    0.9410 hc        1 MOL      0.068888
     28 H12         0.6710   -4.8290   -0.7080 hc        1 MOL      0.068888
     29 N3          3.6420   -3.4960   -0.8280 n         1 MOL      0.221136
     30 C10         4.8510   -3.3320   -1.6590 c3        1 MOL     -0.119538
     31 C11         6.0310   -2.8320   -0.8230 c         1 MOL      0.445922
     32 O6          7.1560   -3.0820   -1.1900 o         1 MOL     -0.502938
     33 C12         4.6440   -2.3680   -2.7820 c3        1 MOL      0.039062
     34 C13         3.3250   -2.6530   -3.5160 c         1 MOL      0.690038
     35 O7          2.3830   -1.9520   -3.2100 o         1 MOL     -0.723511
     36 O8          3.2650   -3.5400   -4.3610 o         1 MOL     -0.723511
     37 H13         3.0810   -2.6960   -0.5610 hn        1 MOL     -0.055975
     38 H14         5.2620   -4.2640   -2.0630 h1        1 MOL      0.086226
     39 H15         5.4220   -2.3410   -3.5420 hc        1 MOL     -0.004202
     40 H16         4.5600   -1.3860   -2.3190 hc        1 MOL     -0.004202
     41 N4          5.7890   -2.3230    0.4170 n         1 MOL     -0.267390
     42 C14         6.7550   -2.0260    1.4320 c3        1 MOL     -0.068113
     43 C15         7.6550   -0.8180    1.1160 c         1 MOL      0.442912
     44 O9          8.7510   -0.7250    1.6030 o         1 MOL     -0.576280
     45 H17         4.8440   -2.0070    0.5540 hn        1 MOL      0.125774
     46 H18         7.3900   -2.8670    1.7200 h1        1 MOL      0.090120
     47 H19         6.2150   -1.9130    2.3750 h1        1 MOL      0.090120
     48 N5          7.2060    0.1130    0.2570 n         1 MOL     -0.192568
     49 C16         7.9290    1.4240   -0.1640 c3        1 MOL      0.018676
     50 C17         7.2800    2.6750    0.4650 c         1 MOL      0.515845
     51 O10         7.4030    3.7510   -0.0720 o         1 MOL     -0.542593
     52 C18         8.0380    1.5290   -1.6300 c3        1 MOL     -0.268976
     53 C19         8.5800    0.2870   -2.3300 c         1 MOL      0.635683
     54 N6          9.8070   -0.1370   -2.0410 n         1 MOL     -0.771576
     55 O11         7.8600   -0.1970   -3.1510 o         1 MOL     -0.519788
     56 H20         6.2170    0.0210    0.0330 hn        1 MOL      0.219459
     57 H21         8.8740    1.4090    0.3750 h1        1 MOL      0.047731
     58 H22         8.6460    2.3830   -1.9410 hc        1 MOL      0.088615
     59 H23         7.0550    1.6870   -2.0790 hc        1 MOL      0.088615
     60 H24        10.3330    0.3480   -1.3370 hn        1 MOL      0.352676
     61 H25        10.2790   -0.8770   -2.5520 hn        1 MOL      0.352676
     62 N7          6.5140    2.4610    1.4830 n         1 MOL     -0.289593
     63 C20         5.8380    3.4910    2.3460 c3        1 MOL     -0.113124
     64 C21         4.8010    4.2600    1.5110 c         1 MOL      0.563471
     65 O12         4.7440    5.4940    1.7140 o         1 MOL     -0.543264
     66 H26         6.4090    1.5010    1.8090 hn        1 MOL      0.198585
     67 H27         6.5750    4.1810    2.7490 h1        1 MOL      0.086376
     68 H28         5.3680    2.9660    3.1860 h1        1 MOL      0.086376
     69 N8          3.8900    3.4910    0.8100 n         1 MOL     -0.445287
     70 C22         2.7630    4.0120    0.0880 c3        1 MOL     -0.039511
     71 C23         1.5600    3.0970    0.1130 c         1 MOL      0.507135
     72 O13         1.5840    1.9980   -0.5000 o         1 MOL     -0.479148
     73 C24         2.9540    4.4770   -1.3730 c3        1 MOL      0.299200
     74 C25         3.3040    5.8990   -1.3790 c3        1 MOL     -0.381614
     75 O14         4.0600    3.7690   -1.9630 oh        1 MOL     -0.630551
     76 H29         4.0300    2.5010    0.6520 hn        1 MOL      0.301677
     77 H30         2.3640    4.8020    0.7240 h1        1 MOL      0.077789
     78 H31         2.0220    4.3970   -1.9320 h1        1 MOL      0.069502
     79 H32         4.7950    4.3810   -1.9140 ho        1 MOL      0.425417
     80 H33         3.3660    6.2660   -2.4090 hc        1 MOL      0.094440
     81 H34         2.6390    6.4660   -0.7290 hc        1 MOL      0.094440
     82 H35         4.2800    6.0170   -0.9020 hc        1 MOL      0.094440
     83 N9          0.4670    3.5760    0.7470 n         1 MOL     -0.517603
     84 C26        -0.7470    2.8130    0.9190 c3        1 MOL      0.076438
     85 C27        -1.8410    2.9160   -0.0940 c         1 MOL      0.506131
     86 O15        -2.1260    4.0110   -0.7050 o         1 MOL     -0.589581
     87 C28        -1.2250    3.0630    2.3960 c3        1 MOL      0.066271
     88 C29        -0.3650    2.2520    3.3930 c3        1 MOL      0.300750
     89 C30        -2.7490    2.6960    2.6110 c3        1 MOL     -0.300268
     90 C31        -0.4570    2.9170    4.7890 c3        1 MOL     -0.365376
     91 H36         0.6030    4.4400    1.2560 hn        1 MOL      0.295228
     92 H37        -0.4190    1.7760    1.0290 h1        1 MOL      0.055147
     93 H38        -1.0480    4.1100    2.6190 hc        1 MOL      0.002983
     94 H39         0.7130    2.3340    3.2290 hc        1 MOL     -0.047346
     95 H40        -0.5970    1.1900    3.3050 hc        1 MOL     -0.047346
     96 H41        -3.2650    3.2750    1.8400 hc        1 MOL      0.074576
     97 H42        -2.8410    1.6120    2.5120 hc        1 MOL      0.074576
     98 H43        -3.1340    2.9620    3.5950 hc        1 MOL      0.074576
     99 H44        -0.2770    3.9960    4.7140 hc        1 MOL      0.070219
    100 H45        -1.3870    2.6250    5.2880 hc        1 MOL      0.070219
    101 H46         0.2590    2.4930    5.4810 hc        1 MOL      0.070219
    102 N10        -2.4020    1.7790   -0.3950 n         1 MOL     -0.230148
    103 C32        -3.4860    1.6910   -1.3480 c3        1 MOL      0.158285
    104 C33        -4.8300    1.4560   -0.7720 c         1 MOL      0.585598
    105 O16        -4.9370    0.9600    0.3980 o         1 MOL     -0.518646
    106 C34        -3.2260    0.6100   -2.4970 c3        1 MOL     -0.077692
    107 C35        -1.8380    0.6000   -3.2250 c         1 MOL      0.755983
    108 O17        -1.4760    1.6700   -3.7340 o         1 MOL     -0.744714
    109 O18        -1.1590   -0.4410   -3.1180 o         1 MOL     -0.744714
    110 H47        -2.0950    0.9300    0.0500 hn        1 MOL      0.057940
    111 H48        -3.6120    2.6470   -1.8570 h1        1 MOL      0.024690
    112 H49        -3.9030    0.8810   -3.2990 hc        1 MOL      0.026545
    113 H50        -3.4750   -0.3590   -2.0840 hc        1 MOL      0.026545
    114 N11        -5.9330    1.9170   -1.3750 n         1 MOL     -0.739813
    115 C36        -7.3110    1.4670   -0.8460 c3        1 MOL      0.457977
    116 C37        -7.5620   -0.0390   -0.5630 c         1 MOL      0.318163
    117 O19        -7.9220   -0.3280    0.5750 o         1 MOL     -0.484925
    118 C38        -8.4040    2.1020   -1.7060 c3        1 MOL     -0.328760
    119 C39        -9.7980    1.7310   -1.3040 ca        1 MOL      0.208889
    120 C40       -10.2680    2.2840   -0.1260 ca        1 MOL     -0.266424
    121 C41       -10.5210    0.7920   -2.0610 ca        1 MOL     -0.266424
    122 C42       -11.5120    1.8590    0.3280 ca        1 MOL     -0.030162
    123 C43       -11.8060    0.3800   -1.6110 ca        1 MOL     -0.030162
    124 C44       -12.2680    0.9590   -0.4010 ca        1 MOL     -0.182715
    125 H51        -5.9320    2.4320   -2.2380 hn        1 MOL      0.362712
    126 H52        -7.5080    1.8670    0.1560 h1        1 MOL      0.033276
    127 H53        -8.1870    1.7310   -2.7110 hc        1 MOL      0.087074
    128 H54        -8.3270    3.1900   -1.7160 hc        1 MOL      0.087074
    129 H55        -9.6290    2.9550    0.4320 ha        1 MOL      0.149345
    130 H56       -10.1170    0.3540   -2.9600 ha        1 MOL      0.149345
    131 H57       -12.0230    2.2460    1.1860 ha        1 MOL      0.097027
    132 H58       -12.4040   -0.3140   -2.1850 ha        1 MOL      0.097027
    133 H59       -13.2280    0.5900   -0.0700 ha        1 MOL      0.109733
    134 N12        -7.0420   -1.0000   -1.3450 n         1 MOL     -0.066503
    135 C45        -6.8660   -2.4500   -1.0200 c3        1 MOL     -0.053781
    136 C46        -5.9980   -2.7640    0.2150 c         1 MOL      0.347905
    137 O20        -6.0410   -3.8190    0.7450 o         1 MOL     -0.525468
    138 C47        -6.2790   -3.0900   -2.3070 c3        1 MOL     -0.002122
    139 C48        -6.6330   -2.2150   -3.4390 c3        1 MOL     -0.050177
    140 C49        -6.7450   -0.8390   -2.7880 c3        1 MOL      0.159437
    141 H60        -7.8560   -2.8690   -0.8620 h1        1 MOL      0.071232
    142 H61        -5.2020   -3.1870   -2.1570 hc        1 MOL      0.046227
    143 H62        -6.6750   -4.0690   -2.5750 hc        1 MOL      0.046227
    144 H63        -5.8540   -2.2050   -4.2100 hc        1 MOL      0.028749
    145 H64        -7.5870   -2.5380   -3.8540 hc        1 MOL      0.028749
    146 H65        -5.8250   -0.2580   -2.8180 h1        1 MOL     -0.068692
    147 H66        -7.5790   -0.2710   -3.1940 h1        1 MOL     -0.068692
    148 N13        -5.1270   -1.8550    0.6330 n         1 MOL     -0.037447
    149 C50        -4.2770   -2.1030    1.7920 c3        1 MOL     -0.019240
    150 C51        -4.7550   -1.4010    3.0530 c         1 MOL      0.398032
    151 O21        -4.4390   -1.8230    4.1550 o         1 MOL     -0.564662
    152 C52        -2.8520   -1.6110    1.5160 c3        1 MOL     -0.090699
    153 C53        -2.1720   -2.5090    0.4890 c3        1 MOL      0.145360
    154 C54        -1.0260   -1.8600   -0.2990 c         1 MOL      0.595120
    155 O22        -0.8770   -0.5990   -0.2180 o         1 MOL     -0.675209
    156 O23        -0.2350   -2.5200   -1.0130 o         1 MOL     -0.675209
    157 H67        -5.1300   -0.9190    0.2620 hn        1 MOL      0.012502
    158 H68        -4.1880   -3.1530    2.0700 h1        1 MOL      0.098242
    159 H69        -2.3260   -1.7030    2.4680 hc        1 MOL      0.054153
    160 H70        -2.9690   -0.5820    1.1960 hc        1 MOL      0.054153
    161 H71        -2.8790   -2.9200   -0.2280 hc        1 MOL     -0.016702
    162 H72        -1.8390   -3.4750    0.8740 hc        1 MOL     -0.016702
    163 N14        -5.6120   -0.4000    2.9360 n         1 MOL     -0.047294
    164 C55        -6.2820    0.3430    4.0240 c3        1 MOL     -0.141168
    165 H73        -7.2950   -0.0400    4.1550 h1        1 MOL      0.063781
    166 H74        -5.7240    0.2150    4.9510 h1        1 MOL      0.063781
    167 H75        -6.3250    1.4020    3.7680 h1        1 MOL      0.063781
    168 H76        -5.9090   -0.2560    1.9800 hn        1 MOL      0.097199
    169 Ca1         1.0720   -0.3120   -1.8750 Ca        1 MOL      1.666642
    170 O24         3.5840    0.8580   -2.3520 oh        1 MOL     -0.851226
    171 O25         1.2620    1.5400   -3.7140 oh        1 MOL     -0.851226
    172 H77         3.8890    0.8930   -1.4380 ho        1 MOL      0.416142
    173 H78         1.6910    1.6690   -4.5580 ho        1 MOL      0.416142
    174 H79         3.4240    1.7730   -2.5690 ho        1 MOL      0.416142
    175 H80         0.4240    2.0090   -3.7960 ho        1 MOL      0.416142
@<TRIPOS>BOND
     1    1    2 1   
     2    1    4 1   
     3    1    5 1   
     4    1    6 1   
     5    2    3 2   
     6    2    7 1   
     7    7    8 1   
     8    7   15 1   
     9    8    9 1   
    10    8   11 1   
    11    8   16 1   
    12    9   10 2   
    13    9   19 1   
    14   11   12 1   
    15   11   17 1   
    16   11   18 1   
    17   12   13 1   
    18   12   14 1   
    19   19   20 1   
    20   19   24 1   
    21   20   21 1   
    22   20   23 1   
    23   20   25 1   
    24   21   22 2   
    25   21   29 1   
    26   23   26 1   
    27   23   27 1   
    28   23   28 1   
    29   29   30 1   
    30   29   37 1   
    31   30   31 1   
    32   30   33 1   
    33   30   38 1   
    34   31   32 2   
    35   31   41 1   
    36   33   34 1   
    37   33   39 1   
    38   33   40 1   
    39   34   35 1   
    40   34   36 1   
    41   41   42 1   
    42   41   45 1   
    43   42   43 1   
    44   42   46 1   
    45   42   47 1   
    46   43   44 2   
    47   43   48 1   
    48   48   49 1   
    49   48   56 1   
    50   49   50 1   
    51   49   52 1   
    52   49   57 1   
    53   50   51 2   
    54   50   62 1   
    55   52   53 1   
    56   52   58 1   
    57   52   59 1   
    58   53   54 1   
    59   53   55 2   
    60   54   60 1   
    61   54   61 1   
    62   62   63 1   
    63   62   66 1   
    64   63   64 1   
    65   63   67 1   
    66   63   68 1   
    67   64   65 2   
    68   64   69 1   
    69   69   70 1   
    70   69   76 1   
    71   70   71 1   
    72   70   73 1   
    73   70   77 1   
    74   71   72 2   
    75   71   83 1   
    76   73   74 1   
    77   73   75 1   
    78   73   78 1   
    79   74   80 1   
    80   74   81 1   
    81   74   82 1   
    82   75   79 1   
    83   83   84 1   
    84   83   91 1   
    85   84   85 1   
    86   84   87 1   
    87   84   92 1   
    88   85   86 2   
    89   85  102 1   
    90   87   88 1   
    91   87   89 1   
    92   87   93 1   
    93   88   90 1   
    94   88   94 1   
    95   88   95 1   
    96   89   96 1   
    97   89   97 1   
    98   89   98 1   
    99   90   99 1   
   100   90  100 1   
   101   90  101 1   
   102  102  103 1   
   103  102  110 1   
   104  103  104 1   
   105  103  106 1   
   106  103  111 1   
   107  104  105 2   
   108  104  114 1   
   109  106  107 1   
   110  106  112 1   
   111  106  113 1   
   112  107  108 1   
   113  107  109 1   
   114  114  115 1   
   115  114  125 1   
   116  115  116 1   
   117  115  118 1   
   118  115  126 1   
   119  116  117 2   
   120  116  134 1   
   121  118  119 1   
   122  118  127 1   
   123  118  128 1   
   124  119  120 ar  
   125  119  121 ar  
   126  120  122 ar  
   127  120  129 1   
   128  121  123 ar  
   129  121  130 1   
   130  122  124 ar  
   131  122  131 1   
   132  123  124 ar  
   133  123  132 1   
   134  124  133 1   
   135  134  135 1   
   136  134  140 1   
   137  135  136 1   
   138  135  138 1   
   139  135  141 1   
   140  136  137 2   
   141  136  148 1   
   142  138  139 1   
   143  138  142 1   
   144  138  143 1   
   145  139  140 1   
   146  139  144 1   
   147  139  145 1   
   148  140  146 1   
   149  140  147 1   
   150  148  149 1   
   151  148  157 1   
   152  149  150 1   
   153  149  152 1   
   154  149  158 1   
   155  150  151 2   
   156  150  163 1   
   157  152  153 1   
   158  152  159 1   
   159  152  160 1   
   160  153  154 1   
   161  153  161 1   
   162  153  162 1   
   163  154  155 1   
   164  154  156 1   
   165  163  164 1   
   166  163  168 1   
   167  164  165 1   
   168  164  166 1   
   169  164  167 1   
   170  170  172 1   
   171  170  174 1   
   172  171  173 1   
   173  171  175 1   
@<TRIPOS>SUBSTRUCTURE
     1 MOL         1 TEMP              0 ****  ****    0 ROOT
