@<TRIPOS>MOLECULE
MOL
  189   185     1     0     0
SMALL
resp


@<TRIPOS>ATOM
      1 C1         -1.7870    0.8880    7.0200 c3        1 MOL     -0.352603
      2 C2         -1.4820    0.9680    5.5430 c         1 MOL      0.754288
      3 O1         -0.3270    1.2210    5.1340 o         1 MOL     -0.610197
      4 H1         -2.8610    0.7590    7.1620 hc        1 MOL      0.096952
      5 H2         -1.2590    0.0390    7.4550 hc        1 MOL      0.096952
      6 H3         -1.4630    1.8070    7.5100 hc        1 MOL      0.096952
      7 N1         -2.4500    0.6760    4.6450 n         1 MOL     -0.645533
      8 C3         -2.3390    0.9560    3.2240 c3        1 MOL      0.075191
      9 C4         -2.3830    2.5060    2.9310 c         1 MOL      0.506347
     10 O2         -3.1360    3.1920    3.5900 o         1 MOL     -0.527589
     11 C5         -3.4610    0.2730    2.4500 c3        1 MOL     -0.018517
     12 C6         -3.0450    0.0130    1.0050 c         1 MOL      0.551369
     13 O3         -2.2140   -0.8960    0.6970 o         1 MOL     -0.621347
     14 O4         -3.5260    0.6850    0.1080 o         1 MOL     -0.621347
     15 H4         -3.2290    0.1530    5.0410 hn        1 MOL      0.328012
     16 H5         -1.3730    0.5560    2.9280 h1        1 MOL      0.093016
     17 H6         -4.3270    0.9350    2.5110 hc        1 MOL      0.030499
     18 H7         -3.7400   -0.6600    2.9400 hc        1 MOL      0.030499
     19 N2         -1.6360    2.9270    1.9150 n         1 MOL     -0.160126
     20 C7         -1.4950    4.3210    1.4580 c3        1 MOL     -0.061928
     21 C8         -2.5620    4.7040    0.4900 c         1 MOL      0.490146
     22 O5         -2.8130    5.8980    0.3350 o         1 MOL     -0.588703
     23 C9         -0.1050    4.7030    0.9400 c3        1 MOL      0.194276
     24 C10         0.5400    5.9860    1.6140 c3        1 MOL     -0.141267
     25 C11         2.0750    5.8960    1.3570 c3        1 MOL     -0.009800
     26 C12         2.6210    5.6970   -0.0810 c3        1 MOL     -0.067703
     27 N3          2.1600    6.8090   -0.9600 n4        1 MOL     -0.361729
     28 H8         -1.1290    2.2130    1.4080 hn        1 MOL      0.032643
     29 H9         -1.7220    4.9360    2.3250 h1        1 MOL      0.076937
     30 H10        -0.0220    4.8380   -0.1420 hc        1 MOL     -0.010051
     31 H11         0.5090    3.8510    1.2250 hc        1 MOL     -0.010051
     32 H12         0.2680    5.9530    2.6650 hc        1 MOL      0.058922
     33 H13         0.2390    6.9110    1.1140 hc        1 MOL      0.058922
     34 H14         2.4320    5.0800    1.9750 hc        1 MOL      0.050420
     35 H15         2.5070    6.7910    1.8110 hc        1 MOL      0.050420
     36 H16         2.2900    4.7250   -0.4350 hx        1 MOL      0.091145
     37 H17         3.7170    5.6230   -0.0880 hx        1 MOL      0.091145
     38 H18         2.7220    6.8870   -1.7970 hn        1 MOL      0.316632
     39 H19         1.2470    6.5440   -1.2910 hn        1 MOL      0.316632
     40 H20         2.1660    7.6880   -0.4710 hn        1 MOL      0.316632
     41 N4         -3.0880    3.7840   -0.3020 n         1 MOL     -0.034988
     42 C13        -4.3090    3.9920   -1.0990 c3        1 MOL     -0.238000
     43 C14        -5.5670    3.6700   -0.3390 c         1 MOL      0.522713
     44 O6         -6.6310    4.2990   -0.6050 o         1 MOL     -0.551094
     45 C15        -4.3600    3.1850   -2.3900 c3        1 MOL      0.214542
     46 C16        -3.0030    2.9960   -3.1090 c         1 MOL      0.493372
     47 O7         -2.1590    2.1990   -2.6470 o         1 MOL     -0.596984
     48 O8         -2.8030    3.6150   -4.1870 o         1 MOL     -0.596984
     49 H21        -2.7430    2.8460   -0.1530 hn        1 MOL     -0.082042
     50 H22        -4.3520    5.0630   -1.3060 h1        1 MOL      0.120023
     51 H23        -5.0530    3.6690   -3.0680 hc        1 MOL     -0.009354
     52 H24        -4.6010    2.1680   -2.0950 hc        1 MOL     -0.009354
     53 N5         -5.5200    2.6670    0.5390 n         1 MOL     -0.247321
     54 C17        -6.7200    2.0650    1.0680 c3        1 MOL     -0.110863
     55 C18        -7.1920    0.7470    0.3440 c         1 MOL      0.426540
     56 O9         -8.3630    0.4520    0.4270 o         1 MOL     -0.539901
     57 H25        -4.6010    2.2740    0.6840 hn        1 MOL      0.155992
     58 H26        -7.5610    2.7430    0.9760 h1        1 MOL      0.103478
     59 H27        -6.6130    1.8720    2.1320 h1        1 MOL      0.103478
     60 N6         -6.3440    0.2140   -0.5520 n         1 MOL     -0.051104
     61 C19        -6.6790   -1.0930   -1.2500 c3        1 MOL     -0.093126
     62 C20        -6.2460   -2.3590   -0.5990 c         1 MOL      0.385223
     63 O10        -6.6460   -3.3920   -1.0690 o         1 MOL     -0.477193
     64 C21        -6.1510   -1.0930   -2.6890 c3        1 MOL     -0.141901
     65 C22        -4.6700   -0.7830   -2.7550 c         1 MOL      0.616892
     66 O11        -3.9010   -1.2640   -1.8770 o         1 MOL     -0.637587
     67 O12        -4.2730   -0.1640   -3.7710 o         1 MOL     -0.637587
     68 H28        -5.3810    0.5150   -0.5020 hn        1 MOL      0.025213
     69 H29        -7.7620   -1.0930   -1.3050 h1        1 MOL      0.131604
     70 H30        -6.6360   -0.3100   -3.2560 hc        1 MOL      0.058343
     71 H31        -6.4020   -2.0530   -3.1270 hc        1 MOL      0.058343
     72 N7         -5.5260   -2.2250    0.5340 n         1 MOL     -0.071748
     73 C23        -5.1780   -3.3420    1.4170 c3        1 MOL     -0.466077
     74 C24        -4.1220   -4.3310    0.8530 c         1 MOL      0.574548
     75 O13        -4.0610   -5.4920    1.3040 o         1 MOL     -0.553779
     76 H32        -5.3180   -1.2910    0.8290 hn        1 MOL      0.124628
     77 H33        -6.0880   -3.9380    1.5100 h1        1 MOL      0.186295
     78 H34        -4.7820   -2.9260    2.3410 h1        1 MOL      0.186295
     79 N8         -3.4630   -3.8970   -0.2340 n         1 MOL     -0.132951
     80 C25        -2.5700   -4.6030   -1.0900 c3        1 MOL     -0.317178
     81 C26        -1.2460   -3.9850   -0.8670 c         1 MOL      0.624561
     82 O14        -0.8690   -2.9820   -1.5440 o         1 MOL     -0.687506
     83 C27        -2.9040   -4.5530   -2.6430 c3        1 MOL      0.774945
     84 C28        -1.9540   -5.3510   -3.5850 c3        1 MOL     -0.368578
     85 O15        -4.3000   -4.8370   -2.8790 oh        1 MOL     -0.727623
     86 H35        -3.5510   -2.8910   -0.3050 hn        1 MOL      0.129781
     87 H36        -2.4560   -5.6560   -0.8320 h1        1 MOL      0.103044
     88 H37        -2.8850   -3.5040   -2.9510 h1        1 MOL     -0.127955
     89 H38        -4.8000   -4.1270   -2.4820 ho        1 MOL      0.415007
     90 H39        -1.8950   -6.3840   -3.2330 hc        1 MOL      0.084123
     91 H40        -2.5080   -5.3060   -4.5190 hc        1 MOL      0.084123
     92 H41        -1.0380   -4.7890   -3.7940 hc        1 MOL      0.084123
     93 N9         -0.5030   -4.5900    0.1010 n         1 MOL     -0.531109
     94 C29         0.7100   -3.9300    0.6930 c3        1 MOL     -0.021276
     95 C30         1.7980   -4.0210   -0.3000 c         1 MOL      0.556448
     96 O16         2.3690   -5.1350   -0.4340 o         1 MOL     -0.571934
     97 C31         0.9980   -4.6210    2.0260 c3        1 MOL      0.035809
     98 C32        -0.1750   -4.4530    3.0230 c3        1 MOL     -0.108854
     99 C33         2.3030   -4.0200    2.7310 c3        1 MOL     -0.096331
    100 C34        -0.6620   -3.0310    3.2980 c3        1 MOL     -0.041530
    101 H42        -0.7990   -5.3830    0.6580 hn        1 MOL      0.345082
    102 H43         0.4860   -2.8710    0.7870 h1        1 MOL      0.098893
    103 H44         1.2290   -5.6730    1.8580 hc        1 MOL      0.048482
    104 H45         0.0910   -4.9520    3.9540 hc        1 MOL      0.026595
    105 H46        -0.9470   -5.0590    2.5410 hc        1 MOL      0.026595
    106 H47         2.5440   -4.7080    3.5360 hc        1 MOL      0.029011
    107 H48         3.0880   -4.2330    2.0120 hc        1 MOL      0.029011
    108 H49         2.1240   -2.9710    2.9920 hc        1 MOL      0.029011
    109 H50        -1.3570   -3.0380    4.1290 hc        1 MOL      0.020394
    110 H51         0.1920   -2.4020    3.5150 hc        1 MOL      0.020394
    111 H52        -1.1940   -2.5590    2.4770 hc        1 MOL      0.020394
    112 N10         2.2160   -2.9600   -0.9610 n         1 MOL     -0.199757
    113 C35         3.4990   -2.8120   -1.6690 c3        1 MOL     -0.190533
    114 C36         4.6670   -2.6420   -0.6750 c         1 MOL      0.444252
    115 O17         4.4370   -2.4920    0.5560 o         1 MOL     -0.345818
    116 C37         3.4820   -1.6560   -2.6930 c3        1 MOL      0.467237
    117 C38         2.4840   -2.0390   -3.7840 c3        1 MOL     -0.348525
    118 O18         3.1800   -0.3750   -2.1850 oh        1 MOL     -0.744676
    119 H53         1.7300   -2.0970   -0.7600 hn        1 MOL      0.167465
    120 H54         3.6150   -3.7830   -2.1550 h1        1 MOL      0.090932
    121 H55         4.4270   -1.6890   -3.2290 h1        1 MOL     -0.007732
    122 H56         2.3390   -0.3870   -1.7380 ho        1 MOL      0.441468
    123 H57         2.5610   -1.2060   -4.4820 hc        1 MOL      0.098538
    124 H58         2.8720   -2.8280   -4.4280 hc        1 MOL      0.098538
    125 H59         1.4290   -2.1670   -3.5230 hc        1 MOL      0.098538
    126 N11         5.8970   -2.5060   -1.2410 n         1 MOL     -0.427290
    127 C39         7.1230   -2.1800   -0.5520 c3        1 MOL     -0.005357
    128 C40         6.9720   -0.8380    0.1070 c         1 MOL      0.413735
    129 O19         7.4060   -0.7460    1.2230 o         1 MOL     -0.519674
    130 C41         8.3060   -2.1050   -1.4880 c3        1 MOL      0.361737
    131 C42         8.6370   -3.5300   -1.9990 c3        1 MOL     -0.292262
    132 O20         8.1520   -1.2600   -2.5760 oh        1 MOL     -0.574863
    133 H60         6.1090   -2.8620   -2.1600 hn        1 MOL      0.295337
    134 H61         7.3450   -2.9100    0.2230 h1        1 MOL      0.103051
    135 H62         9.0960   -1.7340   -0.8400 h1        1 MOL      0.005650
    136 H63         8.4720   -0.4610   -2.1590 ho        1 MOL      0.338712
    137 H64         9.2600   -3.9150   -1.1960 hc        1 MOL      0.082730
    138 H65         7.7860   -4.2110   -2.0590 hc        1 MOL      0.082730
    139 H66         9.1660   -3.4850   -2.9570 hc        1 MOL      0.082730
    140 N12         6.3540    0.1630   -0.5420 n         1 MOL     -0.266262
    141 C43         5.9090    1.5050   -0.0060 c3        1 MOL     -0.066990
    142 C44         5.0980    1.5240    1.3100 c         1 MOL      0.602211
    143 O21         4.9280    2.5910    1.8460 o         1 MOL     -0.588432
    144 C45         5.1770    2.2510   -1.1440 c3        1 MOL     -0.191001
    145 C46         5.7410    3.5900   -1.4660 c3        1 MOL      0.012572
    146 C47         4.9230    4.2780   -2.6430 c3        1 MOL     -0.061882
    147 C48         5.5490    5.6210   -3.0850 c3        1 MOL      0.072658
    148 N13         6.9120    5.5270   -3.7070 n4        1 MOL     -0.261115
    149 H67         6.1240    0.0480   -1.5180 hn        1 MOL      0.192997
    150 H68         6.8020    2.0990    0.2240 h1        1 MOL      0.075838
    151 H69         4.1550    2.2850   -0.7840 hc        1 MOL      0.101199
    152 H70         5.1430    1.7200   -2.0930 hc        1 MOL      0.101199
    153 H71         6.7780    3.4690   -1.7920 hc        1 MOL      0.017748
    154 H72         5.7460    4.1470   -0.5330 hc        1 MOL      0.017748
    155 H73         3.8660    4.3590   -2.4000 hc        1 MOL      0.052596
    156 H74         4.9890    3.5830   -3.4840 hc        1 MOL      0.052596
    157 H75         5.6540    6.2950   -2.2330 hx        1 MOL      0.024926
    158 H76         4.8330    6.0810   -3.7610 hx        1 MOL      0.024926
    159 H77         6.7960    5.1450   -4.6420 hn        1 MOL      0.278100
    160 H78         7.2020    6.4840   -3.8330 hn        1 MOL      0.278100
    161 H79         7.4910    4.9340   -3.1420 hn        1 MOL      0.278100
    162 N14         4.5720    0.4160    1.6920 n         1 MOL     -0.274926
    163 C49         3.6760    0.2950    2.8630 c3        1 MOL     -0.128678
    164 C50         4.1190   -0.8190    3.8320 c         1 MOL      0.444380
    165 O22         3.7530   -0.8250    5.0360 o         1 MOL     -0.531577
    166 C51         2.2680   -0.0380    2.3060 c3        1 MOL      0.027069
    167 C52         1.6380    1.1200    1.5290 c3        1 MOL     -0.136581
    168 C53         0.7370    0.6650    0.3520 c         1 MOL      0.483917
    169 O23         1.0360   -0.3710   -0.3370 o         1 MOL     -0.603254
    170 O24        -0.2300    1.4020    0.1330 o         1 MOL     -0.603254
    171 H80         4.6830   -0.4200    1.1550 hn        1 MOL      0.177397
    172 H81         3.5860    1.2740    3.3410 h1        1 MOL      0.132470
    173 H82         1.6040   -0.2030    3.1510 hc        1 MOL      0.074386
    174 H83         2.3760   -0.9250    1.6760 hc        1 MOL      0.074386
    175 H84         2.3130    1.8920    1.1560 hc        1 MOL      0.084153
    176 H85         0.9960    1.5250    2.3080 hc        1 MOL      0.084153
    177 N15         4.8800   -1.7800    3.3660 n         1 MOL     -0.183856
    178 C54         5.3670   -2.8840    4.2380 c3        1 MOL     -0.261286
    179 H86         4.5230   -3.5000    4.5490 h1        1 MOL      0.112473
    180 H87         6.0790   -3.4970    3.6850 h1        1 MOL      0.112473
    181 H88         5.8530   -2.4650    5.1180 h1        1 MOL      0.112473
    182 H89         5.0270   -1.9040    2.3750 hn        1 MOL      0.173980
    183 Ca1        -1.5950   -0.2000   -1.7970 Ca        1 MOL      1.777260
    184 O25         0.5520    0.8320   -2.8770 oh        1 MOL     -0.868855
    185 H90         0.6940    1.6840   -2.4570 ho        1 MOL      0.408858
    186 H91         1.0940    0.8540   -3.6640 ho        1 MOL      0.408858
    187 O26        -1.5460   -0.5970   -4.5390 oh        1 MOL     -0.868855
    188 H92        -2.4880   -0.4300   -4.5140 ho        1 MOL      0.408858
    189 H93        -1.2740   -0.3060   -5.3990 ho        1 MOL      0.408858
@<TRIPOS>BOND
     1    1    2 1   
     2    1    4 1   
     3    1    5 1   
     4    1    6 1   
     5    2    3 2   
     6    2    7 1   
     7    7    8 1   
     8    7   15 1   
     9    8    9 1   
    10    8   11 1   
    11    8   16 1   
    12    9   10 2   
    13    9   19 1   
    14   11   12 1   
    15   11   17 1   
    16   11   18 1   
    17   12   13 1   
    18   12   14 1   
    19   19   20 1   
    20   19   28 1   
    21   20   21 1   
    22   20   23 1   
    23   20   29 1   
    24   21   22 2   
    25   21   41 1   
    26   23   24 1   
    27   23   30 1   
    28   23   31 1   
    29   24   25 1   
    30   24   32 1   
    31   24   33 1   
    32   25   26 1   
    33   25   34 1   
    34   25   35 1   
    35   26   27 1   
    36   26   36 1   
    37   26   37 1   
    38   27   38 1   
    39   27   39 1   
    40   27   40 1   
    41   41   42 1   
    42   41   49 1   
    43   42   43 1   
    44   42   45 1   
    45   42   50 1   
    46   43   44 2   
    47   43   53 1   
    48   45   46 1   
    49   45   51 1   
    50   45   52 1   
    51   46   47 1   
    52   46   48 1   
    53   53   54 1   
    54   53   57 1   
    55   54   55 1   
    56   54   58 1   
    57   54   59 1   
    58   55   56 2   
    59   55   60 1   
    60   60   61 1   
    61   60   68 1   
    62   61   62 1   
    63   61   64 1   
    64   61   69 1   
    65   62   63 2   
    66   62   72 1   
    67   64   65 1   
    68   64   70 1   
    69   64   71 1   
    70   65   66 1   
    71   65   67 1   
    72   72   73 1   
    73   72   76 1   
    74   73   74 1   
    75   73   77 1   
    76   73   78 1   
    77   74   75 2   
    78   74   79 1   
    79   79   80 1   
    80   79   86 1   
    81   80   81 1   
    82   80   83 1   
    83   80   87 1   
    84   81   82 2   
    85   81   93 1   
    86   83   84 1   
    87   83   85 1   
    88   83   88 1   
    89   84   90 1   
    90   84   91 1   
    91   84   92 1   
    92   85   89 1   
    93   93   94 1   
    94   93  101 1   
    95   94   95 1   
    96   94   97 1   
    97   94  102 1   
    98   95   96 2   
    99   95  112 1   
   100   97   98 1   
   101   97   99 1   
   102   97  103 1   
   103   98  100 1   
   104   98  104 1   
   105   98  105 1   
   106   99  106 1   
   107   99  107 1   
   108   99  108 1   
   109  100  109 1   
   110  100  110 1   
   111  100  111 1   
   112  112  113 1   
   113  112  119 1   
   114  113  114 1   
   115  113  116 1   
   116  113  120 1   
   117  114  115 2   
   118  114  126 1   
   119  116  117 1   
   120  116  118 1   
   121  116  121 1   
   122  117  123 1   
   123  117  124 1   
   124  117  125 1   
   125  118  122 1   
   126  126  127 1   
   127  126  133 1   
   128  127  128 1   
   129  127  130 1   
   130  127  134 1   
   131  128  129 2   
   132  128  140 1   
   133  130  131 1   
   134  130  132 1   
   135  130  135 1   
   136  131  137 1   
   137  131  138 1   
   138  131  139 1   
   139  132  136 1   
   140  140  141 1   
   141  140  149 1   
   142  141  142 1   
   143  141  144 1   
   144  141  150 1   
   145  142  143 2   
   146  142  162 1   
   147  144  145 1   
   148  144  151 1   
   149  144  152 1   
   150  145  146 1   
   151  145  153 1   
   152  145  154 1   
   153  146  147 1   
   154  146  155 1   
   155  146  156 1   
   156  147  148 1   
   157  147  157 1   
   158  147  158 1   
   159  148  159 1   
   160  148  160 1   
   161  148  161 1   
   162  162  163 1   
   163  162  171 1   
   164  163  164 1   
   165  163  166 1   
   166  163  172 1   
   167  164  165 2   
   168  164  177 1   
   169  166  167 1   
   170  166  173 1   
   171  166  174 1   
   172  167  168 1   
   173  167  175 1   
   174  167  176 1   
   175  168  169 1   
   176  168  170 1   
   177  177  178 1   
   178  177  182 1   
   179  178  179 1   
   180  178  180 1   
   181  178  181 1   
   182  184  185 1   
   183  184  186 1   
   184  187  188 1   
   185  187  189 1   
@<TRIPOS>SUBSTRUCTURE
     1 MOL         1 TEMP              0 ****  ****    0 ROOT
