@<TRIPOS>MOLECULE
MOL
  179   176     1     0     0
SMALL
resp


@<TRIPOS>ATOM
      1 C1          2.0040    4.2400    3.7450 c3        1 MOL     -0.282643
      2 C2          0.9410    3.7490    2.7200 c         1 MOL      0.574062
      3 O1          1.2750    3.5370    1.5820 o         1 MOL     -0.573177
      4 H1          2.0590    5.3280    3.7180 hc        1 MOL      0.076677
      5 H2          1.7200    3.9160    4.7470 hc        1 MOL      0.076677
      6 H3          2.9770    3.8210    3.4890 hc        1 MOL      0.076677
      7 N1         -0.2920    3.3710    3.0390 n         1 MOL     -0.495123
      8 C3         -1.2300    2.8320    2.0580 c3        1 MOL     -0.144393
      9 C4         -1.9870    3.9630    1.2950 c         1 MOL      0.605982
     10 O2         -3.1840    4.1480    1.5720 o         1 MOL     -0.482371
     11 C5         -2.0920    1.8420    2.7950 c3        1 MOL      0.121675
     12 C6         -2.9540    1.0200    1.8390 c         1 MOL      0.663087
     13 O3         -3.9370    0.4770    2.3240 o         1 MOL     -0.707810
     14 O4         -2.4970    0.6320    0.6990 o         1 MOL     -0.707810
     15 H4         -0.5730    3.3280    4.0100 hn        1 MOL      0.293964
     16 H5         -0.7000    2.1560    1.3860 h1        1 MOL      0.092231
     17 H6         -2.7360    2.2260    3.5900 hc        1 MOL     -0.010386
     18 H7         -1.4190    1.0700    3.1460 hc        1 MOL     -0.010386
     19 N2         -1.4060    4.7170    0.3370 n         1 MOL     -0.525063
     20 C7         -2.0630    5.8980   -0.2710 c3        1 MOL      0.026398
     21 C8         -3.3390    5.4700   -1.1170 c         1 MOL      0.395922
     22 O5         -4.2790    6.2640   -1.2430 o         1 MOL     -0.534713
     23 C9         -1.1660    6.4820   -1.3650 c3        1 MOL     -0.282262
     24 C10         0.1550    7.0140   -0.8460 c3        1 MOL      0.305191
     25 C11         0.0510    8.0800    0.2060 c3        1 MOL     -0.324631
     26 C12         1.4340    8.7900    0.4440 c3        1 MOL     -0.032689
     27 N3          2.5010    7.8570    0.8910 n4        1 MOL     -0.439914
     28 H8         -0.4790    4.4150    0.0710 hn        1 MOL      0.400216
     29 H9         -2.2930    6.6240    0.5090 h1        1 MOL      0.092033
     30 H10        -1.7180    7.3030   -1.8050 hc        1 MOL      0.105540
     31 H11        -1.0340    5.7000   -2.1170 hc        1 MOL      0.105540
     32 H12         0.6950    7.3150   -1.7420 hc        1 MOL     -0.035561
     33 H13         0.6970    6.1620   -0.4330 hc        1 MOL     -0.035561
     34 H14        -0.3040    7.7180    1.1790 hc        1 MOL      0.127460
     35 H15        -0.7050    8.7800   -0.1410 hc        1 MOL      0.127460
     36 H16         1.3680    9.6360    1.1160 hx        1 MOL      0.123372
     37 H17         1.7650    9.2930   -0.4700 hx        1 MOL      0.123372
     38 H18         2.5060    6.9310    0.4930 hn        1 MOL      0.355536
     39 H19         3.4460    8.2130    0.7820 hn        1 MOL      0.355536
     40 H20         2.2900    7.7270    1.8680 hn        1 MOL      0.355536
     41 N4         -3.2800    4.3700   -1.8130 n         1 MOL     -0.256830
     42 C13        -4.4160    3.7740   -2.5000 c3        1 MOL      0.050249
     43 C14        -5.5000    3.2030   -1.5750 c         1 MOL      0.426354
     44 O6         -6.5840    2.8170   -2.0280 o         1 MOL     -0.543037
     45 C15        -3.9910    2.7400   -3.5350 c3        1 MOL     -0.319339
     46 C16        -3.2340    1.6330   -2.9170 c         1 MOL      0.985336
     47 O7         -3.6800    0.4720   -2.7720 o         1 MOL     -0.815877
     48 O8         -2.0560    1.8710   -2.5080 o         1 MOL     -0.815877
     49 H21        -2.4570    3.7910   -1.7220 hn        1 MOL      0.247350
     50 H22        -4.9630    4.6260   -2.9000 h1        1 MOL      0.085795
     51 H23        -3.2730    3.2290   -4.1900 hc        1 MOL      0.072830
     52 H24        -4.9140    2.4220   -4.0210 hc        1 MOL      0.072830
     53 N5         -5.1730    2.9090   -0.3060 n         1 MOL      0.064433
     54 C17        -6.1720    2.5730    0.6840 c3        1 MOL     -0.119983
     55 C18        -6.7620    1.1540    0.5330 c         1 MOL      0.487884
     56 O9         -7.8650    0.9180    1.0350 o         1 MOL     -0.567381
     57 H25        -4.2710    3.1730    0.0500 hn        1 MOL     -0.031206
     58 H26        -6.9260    3.3620    0.6500 h1        1 MOL      0.082989
     59 H27        -5.7180    2.5170    1.6750 h1        1 MOL      0.082989
     60 N6         -6.0950    0.1730   -0.1420 n         1 MOL     -0.082349
     61 C19        -6.6380   -1.1850   -0.3040 c3        1 MOL     -0.081292
     62 C20        -6.3420   -2.1390    0.9180 c         1 MOL      0.386406
     63 O10        -6.7880   -3.3010    0.8710 o         1 MOL     -0.542432
     64 C21        -6.0710   -1.6660   -1.6200 c3        1 MOL     -0.159539
     65 C22        -4.6470   -2.1690   -1.6870 c         1 MOL      0.513889
     66 N7         -4.2550   -3.0450   -2.5980 n         1 MOL     -0.649564
     67 O11        -3.8160   -1.9140   -0.8090 o         1 MOL     -0.424648
     68 H28        -5.2860    0.3600   -0.7120 hn        1 MOL      0.008486
     69 H29        -7.7230   -1.0890   -0.3700 h1        1 MOL      0.115695
     70 H30        -6.3210   -0.9990   -2.4470 hc        1 MOL      0.090770
     71 H31        -6.7260   -2.4770   -1.9470 hc        1 MOL      0.090770
     72 H32        -4.9790   -3.4380   -3.1860 hn        1 MOL      0.322887
     73 H33        -3.3160   -3.4080   -2.6130 hn        1 MOL      0.322887
     74 N8         -5.4960   -1.7980    1.8550 n         1 MOL     -0.113461
     75 C23        -5.2200   -2.6400    3.0530 c3        1 MOL     -0.303261
     76 C24        -3.9280   -3.4450    3.1710 c         1 MOL      0.555295
     77 O12        -3.6970   -4.0690    4.1880 o         1 MOL     -0.591079
     78 H34        -4.9810   -0.9320    1.8550 hn        1 MOL      0.218312
     79 H35        -6.0910   -3.2990    3.0410 h1        1 MOL      0.134380
     80 H36        -5.2420   -1.9750    3.9120 h1        1 MOL      0.134380
     81 N9         -3.1500   -3.4460    2.1150 n         1 MOL     -0.037465
     82 C25        -1.7640   -3.9950    2.1550 c3        1 MOL     -0.029485
     83 C26        -0.6810   -3.2200    1.4500 c         1 MOL      0.571325
     84 O13        -0.9280   -2.4850    0.4790 o         1 MOL     -0.722945
     85 C27        -1.8480   -5.5070    1.8010 c3        1 MOL      0.046664
     86 C28        -2.4470   -5.8060    0.5220 ca        1 MOL      0.021205
     87 C29        -3.8700   -6.0280    0.5250 ca        1 MOL     -0.194627
     88 C30        -1.6970   -5.8470   -0.6360 ca        1 MOL     -0.194627
     89 C31        -4.5140   -6.1540   -0.7270 ca        1 MOL     -0.208140
     90 C32        -2.3640   -6.0080   -1.9130 ca        1 MOL     -0.208140
     91 C33        -3.8220   -6.1850   -1.9560 ca        1 MOL      0.294002
     92 O14        -4.3880   -6.4510   -3.1520 oh        1 MOL     -0.561871
     93 H37        -3.4310   -2.9730    1.2610 hn        1 MOL      0.124466
     94 H38        -1.4360   -3.8940    3.1930 h1        1 MOL      0.018356
     95 H39        -2.2720   -6.0650    2.6470 hc        1 MOL      0.016581
     96 H40        -0.8340   -5.8950    1.7480 hc        1 MOL      0.016581
     97 H41        -4.4470   -5.9790    1.4340 ha        1 MOL      0.154985
     98 H42        -0.6340   -5.6600   -0.7260 ha        1 MOL      0.154985
     99 H43        -5.5530   -6.4490   -0.7260 ha        1 MOL      0.127056
    100 H44        -1.7820   -6.1030   -2.8200 ha        1 MOL      0.127056
    101 H45        -5.2320   -6.9050   -3.0920 ho        1 MOL      0.427105
    102 N10         0.5510   -3.4010    1.9680 n         1 MOL     -0.366460
    103 C34         1.7370   -2.6400    1.5200 c3        1 MOL     -0.092388
    104 C35         2.9560   -3.4350    0.9500 c         1 MOL      0.414249
    105 O15         3.3080   -4.4840    1.5530 o         1 MOL     -0.549191
    106 C36         2.1210   -1.4720    2.4590 c3        1 MOL      0.156659
    107 C37         2.5700   -1.9750    3.8950 c3        1 MOL     -0.287895
    108 C38         0.9790   -0.4480    2.6470 c3        1 MOL     -0.510569
    109 C39         2.9340   -0.9460    4.9340 c3        1 MOL     -0.154706
    110 H46         0.6160   -4.0530    2.7340 hn        1 MOL      0.282849
    111 H47         1.3890   -2.1780    0.6010 h1        1 MOL      0.199829
    112 H48         2.9400   -0.8900    2.0440 hc        1 MOL     -0.049143
    113 H49         3.4590   -2.5930    3.7690 hc        1 MOL      0.119132
    114 H50         1.8180   -2.6170    4.3460 hc        1 MOL      0.119132
    115 H51         0.1800   -1.0250    3.1010 hc        1 MOL      0.170042
    116 H52         1.3050    0.3970    3.2500 hc        1 MOL      0.170042
    117 H53         0.5390   -0.0570    1.7280 hc        1 MOL      0.170042
    118 H54         2.0780   -0.3820    5.3190 hc        1 MOL      0.054123
    119 H55         3.3640   -1.5100    5.7660 hc        1 MOL      0.054123
    120 H56         3.5740   -0.1430    4.5820 hc        1 MOL      0.054123
    121 N11         3.6110   -2.9830   -0.0750 n         1 MOL     -0.236134
    122 C40         4.9180   -3.5380   -0.5040 c3        1 MOL      0.056109
    123 C41         6.1790   -2.7930    0.0580 c         1 MOL      0.474704
    124 O16         6.1110   -1.7540    0.7280 o         1 MOL     -0.441998
    125 C42         4.9880   -3.3620   -2.0590 c3        1 MOL     -0.215672
    126 O17         4.9590   -1.9930   -2.4470 oh        1 MOL     -0.415967
    127 H57         3.2440   -2.1930   -0.5760 hn        1 MOL      0.193242
    128 H58         4.9810   -4.6220   -0.4330 h1        1 MOL      0.082091
    129 H59         4.1920   -3.9600   -2.4770 h1        1 MOL      0.122653
    130 H60         5.8970   -3.8560   -2.4080 h1        1 MOL      0.122653
    131 H61         5.0930   -1.8880   -3.3950 ho        1 MOL      0.359773
    132 N12         7.3660   -3.3170   -0.2740 n         1 MOL     -0.498024
    133 C43         8.6110   -2.5560   -0.1550 c3        1 MOL      0.244781
    134 C44         8.6020   -1.1280   -0.7870 c         1 MOL      0.392925
    135 O18         9.2510   -0.2700   -0.2720 o         1 MOL     -0.496173
    136 C45         9.7700   -3.5000   -0.5650 c3        1 MOL     -0.438779
    137 H62         7.3850   -4.2300   -0.6970 hn        1 MOL      0.282326
    138 H63         8.6930   -2.2830    0.9030 h1        1 MOL      0.063247
    139 H64        10.7160   -3.1100   -0.1840 hc        1 MOL      0.133025
    140 H65         9.5360   -4.3350    0.0930 hc        1 MOL      0.133025
    141 H66         9.7260   -3.6780   -1.6380 hc        1 MOL      0.133025
    142 N13         7.8910   -0.8300   -1.8930 n         1 MOL     -0.273884
    143 C46         7.8050    0.4710   -2.5260 c3        1 MOL      0.133460
    144 C47         6.9130    1.2820   -1.7450 c         1 MOL      0.325075
    145 O19         7.2470    2.4160   -1.4230 o         1 MOL     -0.510071
    146 C48         7.3080    0.2320   -3.9470 c3        1 MOL     -0.253340
    147 H67         7.4880   -1.6230   -2.3760 hn        1 MOL      0.174518
    148 H68         8.7830    0.9530   -2.5310 h1        1 MOL      0.087558
    149 H69         7.2920    1.1780   -4.4870 hc        1 MOL      0.065952
    150 H70         8.0280   -0.4420   -4.3950 hc        1 MOL      0.065952
    151 H71         6.3190   -0.2350   -3.9850 hc        1 MOL      0.065952
    152 N14         5.8090    0.7760   -1.2110 n         1 MOL      0.007830
    153 C49         4.9820    1.6120   -0.3490 c3        1 MOL     -0.323996
    154 C50         5.6490    2.0180    0.9880 c         1 MOL      0.548428
    155 O20         5.4360    3.1150    1.4520 o         1 MOL     -0.565623
    156 C51         3.6710    0.9390   -0.1060 c3        1 MOL     -0.031258
    157 C52         2.8520    1.1250   -1.3940 c3        1 MOL      0.070223
    158 C53         1.4740    0.3930   -1.3080 c         1 MOL      0.634213
    159 O21         1.3720   -0.8370   -1.5570 o         1 MOL     -0.774582
    160 O22         0.4910    1.0570   -0.8920 o         1 MOL     -0.774582
    161 H72         5.6170   -0.1590   -1.5520 hn        1 MOL      0.177306
    162 H73         4.6740    2.5210   -0.8720 h1        1 MOL      0.128287
    163 H74         3.1180    1.2350    0.7810 hc        1 MOL      0.133624
    164 H75         3.7850   -0.1420    0.0090 hc        1 MOL      0.133624
    165 H76         3.4580    0.6940   -2.1890 hc        1 MOL     -0.055462
    166 H77         2.6110    2.1700   -1.5840 hc        1 MOL     -0.055462
    167 N15         6.5660    1.1910    1.4720 n         1 MOL     -0.213416
    168 C54         7.5730    1.5840    2.5270 c3        1 MOL     -0.152118
    169 H78         7.5130    2.6570    2.7040 h1        1 MOL      0.083124
    170 H79         7.3550    1.0520    3.4530 h1        1 MOL      0.083124
    171 H80         8.5760    1.3270    2.1880 h1        1 MOL      0.083124
    172 H81         6.7230    0.2810    1.0750 hn        1 MOL      0.179501
    173 Ca1        -1.5330   -0.5850   -1.3970 Ca        1 MOL      1.759161
    174 O23        -1.2010   -0.6080   -4.1520 oh        1 MOL     -0.765252
    175 H82        -0.3610   -1.0600   -4.2460 ho        1 MOL      0.383670
    176 H83        -1.2040    0.0410   -4.8530 ho        1 MOL      0.383670
    177 O24        -1.2250   -3.0600   -2.6770 oh        1 MOL     -0.765252
    178 H84        -1.0860   -3.2320   -3.6130 ho        1 MOL      0.383670
    179 H85        -0.6500   -3.6670   -2.2290 ho        1 MOL      0.383670
@<TRIPOS>BOND
     1    1    2 1   
     2    1    4 1   
     3    1    5 1   
     4    1    6 1   
     5    2    3 2   
     6    2    7 1   
     7    7    8 1   
     8    7   15 1   
     9    8    9 1   
    10    8   11 1   
    11    8   16 1   
    12    9   10 2   
    13    9   19 1   
    14   11   12 1   
    15   11   17 1   
    16   11   18 1   
    17   12   13 1   
    18   12   14 1   
    19   19   20 1   
    20   19   28 1   
    21   20   21 1   
    22   20   23 1   
    23   20   29 1   
    24   21   22 2   
    25   21   41 1   
    26   23   24 1   
    27   23   30 1   
    28   23   31 1   
    29   24   25 1   
    30   24   32 1   
    31   24   33 1   
    32   25   26 1   
    33   25   34 1   
    34   25   35 1   
    35   26   27 1   
    36   26   36 1   
    37   26   37 1   
    38   27   38 1   
    39   27   39 1   
    40   27   40 1   
    41   41   42 1   
    42   41   49 1   
    43   42   43 1   
    44   42   45 1   
    45   42   50 1   
    46   43   44 2   
    47   43   53 1   
    48   45   46 1   
    49   45   51 1   
    50   45   52 1   
    51   46   47 1   
    52   46   48 1   
    53   53   54 1   
    54   53   57 1   
    55   54   55 1   
    56   54   58 1   
    57   54   59 1   
    58   55   56 2   
    59   55   60 1   
    60   60   61 1   
    61   60   68 1   
    62   61   62 1   
    63   61   64 1   
    64   61   69 1   
    65   62   63 2   
    66   62   74 1   
    67   64   65 1   
    68   64   70 1   
    69   64   71 1   
    70   65   66 1   
    71   65   67 2   
    72   66   72 1   
    73   66   73 1   
    74   74   75 1   
    75   74   78 1   
    76   75   76 1   
    77   75   79 1   
    78   75   80 1   
    79   76   77 2   
    80   76   81 1   
    81   81   82 1   
    82   81   93 1   
    83   82   83 1   
    84   82   85 1   
    85   82   94 1   
    86   83   84 2   
    87   83  102 1   
    88   85   86 1   
    89   85   95 1   
    90   85   96 1   
    91   86   87 ar  
    92   86   88 ar  
    93   87   89 ar  
    94   87   97 1   
    95   88   90 ar  
    96   88   98 1   
    97   89   91 ar  
    98   89   99 1   
    99   90   91 ar  
   100   90  100 1   
   101   91   92 1   
   102   92  101 1   
   103  102  103 1   
   104  102  110 1   
   105  103  104 1   
   106  103  106 1   
   107  103  111 1   
   108  104  105 2   
   109  104  121 1   
   110  106  107 1   
   111  106  108 1   
   112  106  112 1   
   113  107  109 1   
   114  107  113 1   
   115  107  114 1   
   116  108  115 1   
   117  108  116 1   
   118  108  117 1   
   119  109  118 1   
   120  109  119 1   
   121  109  120 1   
   122  121  122 1   
   123  121  127 1   
   124  122  123 1   
   125  122  125 1   
   126  122  128 1   
   127  123  124 2   
   128  123  132 1   
   129  125  126 1   
   130  125  129 1   
   131  125  130 1   
   132  126  131 1   
   133  132  133 1   
   134  132  137 1   
   135  133  134 1   
   136  133  136 1   
   137  133  138 1   
   138  134  135 2   
   139  134  142 1   
   140  136  139 1   
   141  136  140 1   
   142  136  141 1   
   143  142  143 1   
   144  142  147 1   
   145  143  144 1   
   146  143  146 1   
   147  143  148 1   
   148  144  145 2   
   149  144  152 1   
   150  146  149 1   
   151  146  150 1   
   152  146  151 1   
   153  152  153 1   
   154  152  161 1   
   155  153  154 1   
   156  153  156 1   
   157  153  162 1   
   158  154  155 2   
   159  154  167 1   
   160  156  157 1   
   161  156  163 1   
   162  156  164 1   
   163  157  158 1   
   164  157  165 1   
   165  157  166 1   
   166  158  159 1   
   167  158  160 1   
   168  167  168 1   
   169  167  172 1   
   170  168  169 1   
   171  168  170 1   
   172  168  171 1   
   173  174  175 1   
   174  174  176 1   
   175  177  178 1   
   176  177  179 1   
@<TRIPOS>SUBSTRUCTURE
     1 MOL         1 TEMP              0 ****  ****    0 ROOT
