@<TRIPOS>MOLECULE
MOL
  175   173     1     0     0
SMALL
resp


@<TRIPOS>ATOM
      1 C1          0.4300    4.0230    5.5950 c3        1 MOL     -0.319778
      2 C2         -0.0660    4.1870    4.1770 c         1 MOL      0.728900
      3 O1          0.7440    4.4290    3.2480 o         1 MOL     -0.564031
      4 H1         -0.0920    4.7260    6.2450 hc        1 MOL      0.071348
      5 H2          0.2360    3.0040    5.9330 hc        1 MOL      0.071348
      6 H3          1.5010    4.2210    5.6320 hc        1 MOL      0.071348
      7 N1         -1.3750    3.9590    4.0360 n         1 MOL     -0.685245
      8 C3         -2.0280    3.6410    2.7400 c3        1 MOL      0.239050
      9 C4         -2.0990    4.8700    1.8040 c         1 MOL      0.577294
     10 O2         -2.1500    5.9830    2.2940 o         1 MOL     -0.559356
     11 C5         -3.4100    2.9070    2.9930 c3        1 MOL     -0.116253
     12 C6         -4.1060    2.5160    1.6840 c         1 MOL      0.608421
     13 O3         -3.5460    1.6650    0.9650 o         1 MOL     -0.651363
     14 O4         -5.2360    3.0510    1.3990 o         1 MOL     -0.651363
     15 H4         -1.9570    4.1120    4.8440 hn        1 MOL      0.325614
     16 H5         -1.3600    2.8750    2.3480 h1        1 MOL      0.061571
     17 H6         -4.0730    3.5530    3.5720 hc        1 MOL      0.009929
     18 H7         -3.1900    2.0230    3.5850 hc        1 MOL      0.009929
     19 N2         -2.1840    4.5790    0.4930 n         1 MOL     -0.672984
     20 C7         -2.5380    5.5320   -0.5570 c3        1 MOL      0.393469
     21 C8         -3.5600    5.0950   -1.5820 c         1 MOL      0.437713
     22 O5         -3.8750    5.8450   -2.5110 o         1 MOL     -0.562321
     23 C9         -1.2870    6.0020   -1.2910 c3        1 MOL     -0.221279
     24 H8         -2.0180    3.6190    0.2360 hn        1 MOL      0.383536
     25 H9         -2.9130    6.5070   -0.2450 h1        1 MOL      0.008728
     26 H10        -0.6600    5.2140   -1.7120 hc        1 MOL      0.050106
     27 H11        -1.4940    6.8200   -1.9860 hc        1 MOL      0.050106
     28 H12        -0.5940    6.4530   -0.5780 hc        1 MOL      0.050106
     29 N3         -4.3290    3.9690   -1.5420 n         1 MOL     -0.336648
     30 C10        -5.0320    3.4350   -2.6650 c3        1 MOL      0.076858
     31 C11        -6.1760    2.4610   -2.2430 c         1 MOL      0.370189
     32 O6         -6.9170    2.1410   -3.2090 o         1 MOL     -0.578893
     33 C12        -4.0030    2.7570   -3.6280 c3        1 MOL     -0.134164
     34 C13        -3.2110    1.5400   -3.1170 c         1 MOL      0.794458
     35 O7         -2.1130    1.2600   -3.6830 o         1 MOL     -0.725619
     36 O8         -3.6370    0.6680   -2.3160 o         1 MOL     -0.725619
     37 H13        -4.0670    3.2680   -0.8580 hn        1 MOL      0.100615
     38 H14        -5.6050    4.1850   -3.2170 h1        1 MOL      0.081716
     39 H15        -3.2150    3.4860   -3.8300 hc        1 MOL      0.030381
     40 H16        -4.4090    2.3990   -4.5770 hc        1 MOL      0.030381
     41 N4         -6.2630    2.0270   -1.0230 n         1 MOL     -0.087399
     42 C14        -7.3830    1.2010   -0.4760 c3        1 MOL     -0.172694
     43 C15        -7.3950   -0.2850   -0.8350 c         1 MOL      0.414858
     44 O9         -8.4320   -0.9940   -0.7110 o         1 MOL     -0.601068
     45 H17        -5.7120    2.5430   -0.3460 hn        1 MOL      0.165853
     46 H18        -8.3390    1.6000   -0.8170 h1        1 MOL      0.103390
     47 H19        -7.4030    1.3350    0.6020 h1        1 MOL      0.103390
     48 N5         -6.3590   -0.8470   -1.4400 n         1 MOL      0.062159
     49 C16        -6.3690   -2.2570   -1.9060 c3        1 MOL     -0.201360
     50 C17        -6.2960   -3.3500   -0.8010 c         1 MOL      0.532986
     51 O10        -6.3800   -4.5560   -1.1350 o         1 MOL     -0.561462
     52 C18        -5.2200   -2.3710   -2.9030 c3        1 MOL     -0.066802
     53 C19        -3.7980   -2.3220   -2.3820 c         1 MOL      0.421895
     54 N6         -2.8530   -2.3290   -3.2700 n         1 MOL     -0.476003
     55 O11        -3.4290   -2.2390   -1.2190 o         1 MOL     -0.475604
     56 H20        -5.4860   -0.3310   -1.4760 hn        1 MOL     -0.023149
     57 H21        -7.2740   -2.3060   -2.5110 h1        1 MOL      0.135337
     58 H22        -5.3050   -1.5910   -3.6640 hc        1 MOL      0.061278
     59 H23        -5.3130   -3.3100   -3.4620 hc        1 MOL      0.061278
     60 H24        -3.0860   -2.5550   -4.2310 hn        1 MOL      0.284513
     61 H25        -1.8890   -2.2880   -2.9730 hn        1 MOL      0.284513
     62 N7         -6.2460   -2.9650    0.4210 n         1 MOL     -0.244648
     63 C20        -6.1860   -3.9080    1.5750 c3        1 MOL     -0.252579
     64 C21        -4.7550   -4.4650    1.8510 c         1 MOL      0.539722
     65 O12        -4.5920   -5.3370    2.7390 o         1 MOL     -0.597508
     66 H26        -6.0650   -1.9850    0.6070 hn        1 MOL      0.247585
     67 H27        -6.8070   -4.7960    1.4600 h1        1 MOL      0.135888
     68 H28        -6.5490   -3.4070    2.4790 h1        1 MOL      0.135888
     69 N8         -3.6600   -3.9780    1.3120 n         1 MOL     -0.356130
     70 C22        -2.3080   -4.5370    1.3620 c3        1 MOL     -0.065445
     71 C23        -1.3460   -3.4270    1.5300 c         1 MOL      0.826891
     72 O13        -1.5150   -2.3330    0.9710 o         1 MOL     -0.731855
     73 C24        -1.9830   -5.5060    0.1030 c3        1 MOL      0.509226
     74 C25        -2.8420   -6.7040    0.1580 c3        1 MOL     -0.519166
     75 O14        -2.1470   -4.9420   -1.2270 oh        1 MOL     -0.602072
     76 H29        -3.8120   -3.3450    0.5450 hn        1 MOL      0.260585
     77 H30        -2.1410   -5.1650    2.2380 h1        1 MOL      0.073300
     78 H31        -1.0180   -6.0010    0.2210 h1        1 MOL     -0.028537
     79 H32        -1.5180   -4.2410   -1.4030 ho        1 MOL      0.354087
     80 H33        -2.3810   -7.5200   -0.3950 hc        1 MOL      0.131997
     81 H34        -3.1110   -6.9530    1.1840 hc        1 MOL      0.131997
     82 H35        -3.7600   -6.4000   -0.3330 hc        1 MOL      0.131997
     83 N9         -0.2250   -3.7280    2.2280 n         1 MOL     -0.808493
     84 C26         0.9790   -2.8460    2.0040 c3        1 MOL     -0.008468
     85 C27         1.4940   -3.1910    0.6360 c         1 MOL      0.375864
     86 O15         1.6890   -4.3680    0.2940 o         1 MOL     -0.535996
     87 C28         2.0470   -3.0360    3.1050 c3        1 MOL      0.384743
     88 C29         1.4000   -3.3050    4.5010 c3        1 MOL      0.074395
     89 C30         2.9160   -1.8160    3.1620 c3        1 MOL     -0.314934
     90 C31         2.3420   -3.8910    5.5730 c3        1 MOL     -0.220669
     91 H36        -0.0870   -4.6320    2.6490 hn        1 MOL      0.351730
     92 H37         0.6750   -1.8100    1.8780 h1        1 MOL      0.139938
     93 H38         2.7120   -3.8670    2.8820 hc        1 MOL     -0.047311
     94 H39         0.7160   -4.1300    4.3060 hc        1 MOL     -0.011041
     95 H40         0.8380   -2.4410    4.8500 hc        1 MOL     -0.011041
     96 H41         3.6790   -1.8210    3.9400 hc        1 MOL      0.042841
     97 H42         3.4860   -1.8520    2.2400 hc        1 MOL      0.042841
     98 H43         2.2180   -0.9810    3.2750 hc        1 MOL      0.042841
     99 H44         2.8160   -4.8080    5.2070 hc        1 MOL      0.043002
    100 H45         3.1820   -3.2130    5.7420 hc        1 MOL      0.043002
    101 H46         1.7300   -4.0970    6.4560 hc        1 MOL      0.043002
    102 N10         1.8720   -2.1090   -0.1530 n         1 MOL     -0.119210
    103 C32         2.7000   -2.0370   -1.2910 c3        1 MOL      0.036142
    104 C33         4.1290   -1.5420   -0.9990 c         1 MOL      0.396937
    105 O16         4.3840   -0.9390    0.0610 o         1 MOL     -0.384324
    106 C34         2.0070   -1.1780   -2.3700 c3        1 MOL     -0.386273
    107 C35         0.6010   -1.4360   -2.5600 c         1 MOL      0.873595
    108 O17        -0.2860   -0.9750   -1.8220 o         1 MOL     -0.716596
    109 O18         0.2420   -2.1830   -3.4630 o         1 MOL     -0.716596
    110 H47         1.5260   -1.1980    0.1200 hn        1 MOL      0.241601
    111 H48         2.8770   -3.0630   -1.6290 h1        1 MOL      0.064039
    112 H49         2.4900   -1.1500   -3.3460 hc        1 MOL      0.085798
    113 H50         2.1600   -0.1390   -2.0630 hc        1 MOL      0.085798
    114 N11         5.1330   -1.6740   -1.8310 n         1 MOL     -0.489443
    115 C36         6.5100   -1.3310   -1.4990 c3        1 MOL      0.253441
    116 C37         6.7480    0.1770   -1.2060 c         1 MOL      0.460479
    117 O19         7.5220    0.4610   -0.2940 o         1 MOL     -0.487833
    118 C38         7.4230   -1.8690   -2.5410 c3        1 MOL     -0.203092
    119 C39         8.9550   -1.7390   -2.0870 ca        1 MOL      0.108045
    120 C40         9.6430   -2.7890   -1.5330 ca        1 MOL     -0.192815
    121 C41         9.7170   -0.5770   -2.4610 ca        1 MOL     -0.192815
    122 C42        10.9560   -2.6300   -1.0750 ca        1 MOL     -0.051796
    123 C43        11.0080   -0.4050   -2.0630 ca        1 MOL     -0.051796
    124 C44        11.6110   -1.4460   -1.3770 ca        1 MOL     -0.172700
    125 H51         4.9860   -2.0180   -2.7670 hn        1 MOL      0.283120
    126 H52         6.8410   -1.7830   -0.5670 h1        1 MOL      0.042696
    127 H53         7.3330   -1.4070   -3.5230 hc        1 MOL      0.069356
    128 H54         7.2390   -2.9180   -2.8040 hc        1 MOL      0.069356
    129 H55         9.0590   -3.6720   -1.3270 ha        1 MOL      0.112139
    130 H56         9.2630    0.2410   -3.0080 ha        1 MOL      0.112139
    131 H57        11.5370   -3.4400   -0.6620 ha        1 MOL      0.101052
    132 H58        11.4680    0.5740   -2.1310 ha        1 MOL      0.101052
    133 H59        12.6190   -1.2080   -1.0520 ha        1 MOL      0.104383
    134 N12         6.0660    1.1610   -1.9080 n         1 MOL     -0.170391
    135 C45         6.0280    2.6110   -1.5470 c3        1 MOL     -0.120691
    136 C46         5.4540    2.9590   -0.1160 c         1 MOL      0.345358
    137 O20         5.8940    3.9650    0.4960 o         1 MOL     -0.488485
    138 C47         5.2540    3.3040   -2.6990 c3        1 MOL     -0.020335
    139 C48         5.4110    2.3510   -3.8630 c3        1 MOL     -0.125721
    140 C49         5.2940    0.9680   -3.2060 c3        1 MOL      0.019538
    141 H60         7.0620    2.9700   -1.4920 h1        1 MOL      0.090737
    142 H61         4.2020    3.4670   -2.4870 hc        1 MOL      0.062327
    143 H62         5.5400    4.3260   -2.9340 hc        1 MOL      0.062327
    144 H63         4.6700    2.4240   -4.6570 hc        1 MOL      0.051293
    145 H64         6.3770    2.3210   -4.3800 hc        1 MOL      0.051293
    146 H65         4.2700    0.7290   -2.9170 h1        1 MOL      0.043733
    147 H66         5.7320    0.1850   -3.8300 h1        1 MOL      0.043733
    148 N13         4.5510    2.0700    0.2740 n         1 MOL     -0.083741
    149 C50         3.8990    2.3490    1.6040 c3        1 MOL     -0.283108
    150 C51         4.7520    1.7770    2.7510 c         1 MOL      0.470141
    151 O21         4.7940    2.3050    3.8220 o         1 MOL     -0.538314
    152 C52         2.4730    1.7710    1.6940 c3        1 MOL      0.039439
    153 C53         1.5930    2.3410    0.5860 c3        1 MOL     -0.134628
    154 C54         0.2280    1.6440    0.6140 c         1 MOL      0.616730
    155 O22        -0.7380    2.0710   -0.0570 o         1 MOL     -0.756693
    156 O23         0.0190    0.4860    1.0100 o         1 MOL     -0.756693
    157 H67         4.3240    1.2710   -0.2930 hn        1 MOL      0.171610
    158 H68         3.8580    3.4220    1.7970 h1        1 MOL      0.173074
    159 H69         2.0980    1.9590    2.7030 hc        1 MOL      0.041527
    160 H70         2.5050    0.6930    1.5730 hc        1 MOL      0.041527
    161 H71         2.0350    2.1810   -0.4020 hc        1 MOL      0.084350
    162 H72         1.5470    3.4210    0.7410 hc        1 MOL      0.084350
    163 N14         5.5040    0.6780    2.5170 n         1 MOL     -0.014960
    164 C55         6.4550    0.0750    3.4160 c3        1 MOL     -0.189838
    165 H73         6.2190    0.3640    4.4410 h1        1 MOL      0.070251
    166 H74         6.4060   -1.0100    3.3240 h1        1 MOL      0.070251
    167 H75         7.4590    0.4160    3.1660 h1        1 MOL      0.070251
    168 H76         5.4260    0.2480    1.6050 hn        1 MOL      0.047596
    169 Ca1        -2.2420   -0.0860   -0.3260 Ca        1 MOL      1.705955
    170 O24        -4.1000   -1.0170    1.5110 oh        1 MOL     -0.805980
    171 H77        -3.3260   -0.9030    2.0680 ho        1 MOL      0.400179
    172 H78        -4.7910   -0.5490    1.9800 ho        1 MOL      0.400179
    173 O25        -1.7700   -0.0380    2.8210 oh        1 MOL     -0.805980
    174 H79        -0.9920    0.1220    2.2900 ho        1 MOL      0.400179
    175 H80        -1.4580    0.0110    3.7260 ho        1 MOL      0.400179
@<TRIPOS>BOND
     1    1    2 1   
     2    1    4 1   
     3    1    5 1   
     4    1    6 1   
     5    2    3 2   
     6    2    7 1   
     7    7    8 1   
     8    7   15 1   
     9    8    9 1   
    10    8   11 1   
    11    8   16 1   
    12    9   10 2   
    13    9   19 1   
    14   11   12 1   
    15   11   17 1   
    16   11   18 1   
    17   12   13 1   
    18   12   14 1   
    19   19   20 1   
    20   19   24 1   
    21   20   21 1   
    22   20   23 1   
    23   20   25 1   
    24   21   22 2   
    25   21   29 1   
    26   23   26 1   
    27   23   27 1   
    28   23   28 1   
    29   29   30 1   
    30   29   37 1   
    31   30   31 1   
    32   30   33 1   
    33   30   38 1   
    34   31   32 2   
    35   31   41 1   
    36   33   34 1   
    37   33   39 1   
    38   33   40 1   
    39   34   35 1   
    40   34   36 1   
    41   41   42 1   
    42   41   45 1   
    43   42   43 1   
    44   42   46 1   
    45   42   47 1   
    46   43   44 2   
    47   43   48 1   
    48   48   49 1   
    49   48   56 1   
    50   49   50 1   
    51   49   52 1   
    52   49   57 1   
    53   50   51 2   
    54   50   62 1   
    55   52   53 1   
    56   52   58 1   
    57   52   59 1   
    58   53   54 1   
    59   53   55 2   
    60   54   60 1   
    61   54   61 1   
    62   62   63 1   
    63   62   66 1   
    64   63   64 1   
    65   63   67 1   
    66   63   68 1   
    67   64   65 2   
    68   64   69 1   
    69   69   70 1   
    70   69   76 1   
    71   70   71 1   
    72   70   73 1   
    73   70   77 1   
    74   71   72 2   
    75   71   83 1   
    76   73   74 1   
    77   73   75 1   
    78   73   78 1   
    79   74   80 1   
    80   74   81 1   
    81   74   82 1   
    82   75   79 1   
    83   83   84 1   
    84   83   91 1   
    85   84   85 1   
    86   84   87 1   
    87   84   92 1   
    88   85   86 2   
    89   85  102 1   
    90   87   88 1   
    91   87   89 1   
    92   87   93 1   
    93   88   90 1   
    94   88   94 1   
    95   88   95 1   
    96   89   96 1   
    97   89   97 1   
    98   89   98 1   
    99   90   99 1   
   100   90  100 1   
   101   90  101 1   
   102  102  103 1   
   103  102  110 1   
   104  103  104 1   
   105  103  106 1   
   106  103  111 1   
   107  104  105 2   
   108  104  114 1   
   109  106  107 1   
   110  106  112 1   
   111  106  113 1   
   112  107  108 1   
   113  107  109 1   
   114  114  115 1   
   115  114  125 1   
   116  115  116 1   
   117  115  118 1   
   118  115  126 1   
   119  116  117 2   
   120  116  134 1   
   121  118  119 1   
   122  118  127 1   
   123  118  128 1   
   124  119  120 ar  
   125  119  121 ar  
   126  120  122 ar  
   127  120  129 1   
   128  121  123 ar  
   129  121  130 1   
   130  122  124 ar  
   131  122  131 1   
   132  123  124 ar  
   133  123  132 1   
   134  124  133 1   
   135  134  135 1   
   136  134  140 1   
   137  135  136 1   
   138  135  138 1   
   139  135  141 1   
   140  136  137 2   
   141  136  148 1   
   142  138  139 1   
   143  138  142 1   
   144  138  143 1   
   145  139  140 1   
   146  139  144 1   
   147  139  145 1   
   148  140  146 1   
   149  140  147 1   
   150  148  149 1   
   151  148  157 1   
   152  149  150 1   
   153  149  152 1   
   154  149  158 1   
   155  150  151 2   
   156  150  163 1   
   157  152  153 1   
   158  152  159 1   
   159  152  160 1   
   160  153  154 1   
   161  153  161 1   
   162  153  162 1   
   163  154  155 1   
   164  154  156 1   
   165  163  164 1   
   166  163  168 1   
   167  164  165 1   
   168  164  166 1   
   169  164  167 1   
   170  170  171 1   
   171  170  172 1   
   172  173  174 1   
   173  173  175 1   
@<TRIPOS>SUBSTRUCTURE
     1 MOL         1 TEMP              0 ****  ****    0 ROOT
