@<TRIPOS>MOLECULE
MOL
  175   173     1     0     0
SMALL
resp


@<TRIPOS>ATOM
      1 C1          0.5730    3.8610    5.2210 c3        1 MOL     -0.385317
      2 C2         -0.2250    3.9580    3.9110 c         1 MOL      0.700897
      3 O1          0.4160    4.2560    2.8940 o         1 MOL     -0.560866
      4 H1          1.3670    3.1220    5.1080 hc        1 MOL      0.090315
      5 H2          1.0110    4.8320    5.4540 hc        1 MOL      0.090315
      6 H3         -0.0910    3.5580    6.0300 hc        1 MOL      0.090315
      7 N1         -1.5180    3.7330    3.8930 n         1 MOL     -0.645007
      8 C3         -2.2640    3.5310    2.6900 c3        1 MOL      0.241402
      9 C4         -2.4530    4.7500    1.7770 c         1 MOL      0.699529
     10 O2         -2.8040    5.7960    2.2970 o         1 MOL     -0.605313
     11 C5         -3.6030    2.7990    3.0550 c3        1 MOL     -0.445465
     12 C6         -4.3290    2.1760    1.8300 c         1 MOL      0.792515
     13 O3         -5.5080    1.7870    1.8890 o         1 MOL     -0.658952
     14 O4         -3.5850    2.0070    0.7570 o         1 MOL     -0.658952
     15 H4         -1.9550    3.5100    4.7750 hn        1 MOL      0.341455
     16 H5         -1.8270    2.7180    2.1210 h1        1 MOL      0.019574
     17 H6         -4.2710    3.5400    3.5000 hc        1 MOL      0.083598
     18 H7         -3.4240    1.9220    3.6640 hc        1 MOL      0.083598
     19 N2         -2.4370    4.5390    0.4640 n         1 MOL     -0.721341
     20 C7         -2.8130    5.5410   -0.5200 c3        1 MOL      0.333047
     21 C8         -3.7380    5.0040   -1.6710 c         1 MOL      0.558223
     22 O5         -3.8250    5.7740   -2.5960 o         1 MOL     -0.578724
     23 C9         -1.4600    6.1150   -1.0260 c3        1 MOL     -0.300151
     24 H8         -2.1300    3.6430    0.1180 hn        1 MOL      0.386700
     25 H9         -3.4310    6.3200   -0.0660 h1        1 MOL      0.006980
     26 H10        -0.9990    5.4710   -1.7790 hc        1 MOL      0.070029
     27 H11        -1.7530    7.0130   -1.5730 hc        1 MOL      0.070029
     28 H12        -0.7450    6.2840   -0.2280 hc        1 MOL      0.070029
     29 N3         -4.3140    3.8470   -1.5900 n         1 MOL     -0.578323
     30 C10        -5.1120    3.3130   -2.7450 c3        1 MOL      0.167590
     31 C11        -6.4130    2.5860   -2.2320 c         1 MOL      0.351376
     32 O6         -7.3940    2.4880   -3.0500 o         1 MOL     -0.533758
     33 C12        -4.2480    2.3490   -3.5320 c3        1 MOL      0.031331
     34 C13        -3.4720    1.3750   -2.6480 c         1 MOL      0.561488
     35 O7         -4.0610    0.7750   -1.7080 o         1 MOL     -0.679942
     36 O8         -2.2550    1.2550   -2.7220 o         1 MOL     -0.679942
     37 H13        -3.9050    3.2040   -0.9310 hn        1 MOL      0.363810
     38 H14        -5.3250    4.1430   -3.4210 h1        1 MOL      0.052470
     39 H15        -3.6180    2.7750   -4.3160 hc        1 MOL     -0.006806
     40 H16        -5.0140    1.8240   -4.1080 hc        1 MOL     -0.006806
     41 N4         -6.4920    2.1680   -0.9460 n         1 MOL     -0.185975
     42 C14        -7.5710    1.2740   -0.4290 c3        1 MOL     -0.225226
     43 C15        -7.5380   -0.1210   -0.9920 c         1 MOL      0.409011
     44 O9         -8.6720   -0.5560   -1.2670 o         1 MOL     -0.580255
     45 H17        -5.6440    2.2370   -0.4050 hn        1 MOL      0.092313
     46 H18        -8.4890    1.7380   -0.7820 h1        1 MOL      0.138391
     47 H19        -7.5840    1.2520    0.6540 h1        1 MOL      0.138391
     48 N5         -6.4340   -0.7910   -1.2790 n         1 MOL     -0.013652
     49 C16        -6.4400   -1.9970   -2.0390 c3        1 MOL     -0.068548
     50 C17        -6.5260   -3.2880   -1.2270 c         1 MOL      0.349747
     51 O10        -6.9370   -4.2940   -1.7520 o         1 MOL     -0.539786
     52 C18        -5.1660   -1.9010   -2.8660 c3        1 MOL      0.114134
     53 C19        -3.7730   -2.0020   -2.2280 c         1 MOL      0.377593
     54 N6         -2.8160   -1.9060   -3.1110 n         1 MOL     -0.547087
     55 O11        -3.5490   -2.2530   -1.0110 o         1 MOL     -0.311919
     56 H20        -5.5940   -0.2770   -1.0330 hn        1 MOL      0.198824
     57 H21        -7.2870   -1.9220   -2.7210 h1        1 MOL      0.101246
     58 H22        -5.2600   -0.9660   -3.4110 hc        1 MOL     -0.024250
     59 H23        -5.1560   -2.7150   -3.6000 hc        1 MOL     -0.024250
     60 H24        -3.0200   -1.9620   -4.1010 hn        1 MOL      0.309154
     61 H25        -1.8700   -1.8420   -2.7760 hn        1 MOL      0.309154
     62 N7         -6.0600   -3.2210   -0.0060 n         1 MOL     -0.026593
     63 C20        -6.1040   -4.3450    0.9590 c3        1 MOL     -0.025916
     64 C21        -4.7130   -4.8640    1.3030 c         1 MOL      0.405397
     65 O12        -4.7000   -6.0230    1.7760 o         1 MOL     -0.559536
     66 H26        -5.7400   -2.2880    0.2080 hn        1 MOL     -0.069567
     67 H27        -6.7500   -5.1380    0.6090 h1        1 MOL      0.071640
     68 H28        -6.6960   -3.9950    1.8120 h1        1 MOL      0.071640
     69 N8         -3.5840   -4.1490    1.0820 n         1 MOL     -0.049530
     70 C22        -2.1600   -4.5670    1.3690 c3        1 MOL     -0.368227
     71 C23        -1.1830   -3.3960    1.6060 c         1 MOL      0.526333
     72 O13        -1.2710   -2.3000    0.9750 o         1 MOL     -0.555482
     73 C24        -1.5450   -5.4280    0.2910 c3        1 MOL      0.511921
     74 C25        -2.2700   -6.7460    0.0110 c3        1 MOL     -0.601005
     75 O14        -1.4570   -4.9450   -1.0180 oh        1 MOL     -0.518225
     76 H29        -3.7800   -3.3290    0.5410 hn        1 MOL      0.030689
     77 H30        -2.2460   -5.1210    2.3090 h1        1 MOL      0.146246
     78 H31        -0.5280   -5.7020    0.5590 h1        1 MOL     -0.003470
     79 H32        -1.7480   -4.0310   -0.9290 ho        1 MOL      0.258087
     80 H33        -3.1650   -6.4640   -0.5560 hc        1 MOL      0.155754
     81 H34        -1.6240   -7.4080   -0.5530 hc        1 MOL      0.155754
     82 H35        -2.5440   -7.1530    0.9830 hc        1 MOL      0.155754
     83 N9         -0.0590   -3.6720    2.3320 n         1 MOL     -0.397206
     84 C26         1.0970   -2.7890    2.2630 c3        1 MOL      0.058986
     85 C27         1.7710   -3.0110    0.9100 c         1 MOL      0.474916
     86 O15         2.3390   -4.0350    0.7190 o         1 MOL     -0.579565
     87 C28         2.0320   -2.9880    3.4180 c3        1 MOL      0.199638
     88 C29         1.2680   -2.5300    4.6630 c3        1 MOL      0.003847
     89 C30         3.3950   -2.2060    3.2380 c3        1 MOL     -0.209943
     90 C31         1.9820   -2.8410    6.0000 c3        1 MOL     -0.126112
     91 H36         0.0400   -4.6110    2.7050 hn        1 MOL      0.252338
     92 H37         0.8220   -1.7370    2.3640 h1        1 MOL     -0.026216
     93 H38         2.2420   -4.0460    3.5690 hc        1 MOL     -0.030297
     94 H39         0.2420   -2.8910    4.6110 hc        1 MOL     -0.004534
     95 H40         1.1610   -1.4430    4.6450 hc        1 MOL     -0.004534
     96 H41         3.9880   -2.8230    2.5540 hc        1 MOL      0.041019
     97 H42         3.2230   -1.2860    2.6770 hc        1 MOL      0.041019
     98 H43         4.0400   -1.9400    4.0740 hc        1 MOL      0.041019
     99 H44         1.3480   -2.5230    6.8250 hc        1 MOL      0.021659
    100 H45         2.1480   -3.9020    6.1980 hc        1 MOL      0.021659
    101 H46         2.9460   -2.3360    5.9210 hc        1 MOL      0.021659
    102 N10         1.8290   -1.9530    0.1250 n         1 MOL     -0.061044
    103 C32         2.6120   -1.8810   -1.0850 c3        1 MOL      0.014765
    104 C33         4.0550   -1.3440   -0.8790 c         1 MOL      0.526529
    105 O16         4.3530   -0.6470    0.1000 o         1 MOL     -0.436521
    106 C34         1.8720   -1.1030   -2.1420 c3        1 MOL     -0.173639
    107 C35         0.4520   -1.6540   -2.4100 c         1 MOL      0.688408
    108 O17         0.2740   -2.3710   -3.3980 o         1 MOL     -0.648876
    109 O18        -0.4650   -1.3180   -1.5850 o         1 MOL     -0.648876
    110 H47         1.2780   -1.1190    0.2900 hn        1 MOL      0.097535
    111 H48         2.6940   -2.8680   -1.5430 h1        1 MOL      0.056292
    112 H49         2.2640   -1.1360   -3.1590 hc        1 MOL      0.032737
    113 H50         1.7850   -0.0420   -1.9080 hc        1 MOL      0.032737
    114 N11         4.9950   -1.7650   -1.8120 n         1 MOL     -0.694637
    115 C36         6.4270   -1.5630   -1.5320 c3        1 MOL      0.401008
    116 C37         6.8370   -0.1460   -1.0830 c         1 MOL      0.536560
    117 O19         7.4030   -0.1540    0.0290 o         1 MOL     -0.505552
    118 C38         7.3220   -2.0700   -2.7060 c3        1 MOL     -0.092849
    119 C39         8.7630   -1.6090   -2.4730 ca        1 MOL     -0.009638
    120 C40         9.4480   -0.7170   -3.3110 ca        1 MOL     -0.143419
    121 C41         9.4020   -2.0240   -1.2900 ca        1 MOL     -0.143419
    122 C42        10.6810   -0.2100   -2.9460 ca        1 MOL     -0.120059
    123 C43        10.7660   -1.6220   -0.9410 ca        1 MOL     -0.120059
    124 C44        11.3620   -0.6300   -1.7780 ca        1 MOL     -0.114577
    125 H51         4.8200   -2.2230   -2.6910 hn        1 MOL      0.328778
    126 H52         6.6040   -2.3010   -0.7570 h1        1 MOL      0.023390
    127 H53         7.0210   -1.8090   -3.7130 hc        1 MOL      0.035570
    128 H54         7.2450   -3.1530   -2.6690 hc        1 MOL      0.035570
    129 H55         9.0690   -0.3950   -4.2710 ha        1 MOL      0.108799
    130 H56         8.9170   -2.7060   -0.6070 ha        1 MOL      0.108799
    131 H57        11.2480    0.4450   -3.5960 ha        1 MOL      0.115807
    132 H58        11.1740   -1.9500    0.0030 ha        1 MOL      0.115807
    133 H59        12.3100   -0.1370   -1.6080 ha        1 MOL      0.102167
    134 N12         6.5130    0.9480   -1.8460 n         1 MOL     -0.279906
    135 C45         6.6620    2.3400   -1.4440 c3        1 MOL      0.028790
    136 C46         5.9450    2.6990   -0.2010 c         1 MOL      0.320655
    137 O20         6.4260    3.5860    0.5020 o         1 MOL     -0.535388
    138 C47         6.0200    3.1770   -2.6290 c3        1 MOL      0.007020
    139 C48         6.1320    2.2300   -3.7920 c3        1 MOL     -0.001832
    140 C49         5.7610    0.9770   -3.1060 c3        1 MOL     -0.001875
    141 H60         7.7180    2.5620   -1.3230 h1        1 MOL      0.080870
    142 H61         5.0070    3.4750   -2.3590 hc        1 MOL      0.025813
    143 H62         6.6290    4.0490   -2.8650 hc        1 MOL      0.025813
    144 H63         5.4640    2.5070   -4.6090 hc        1 MOL      0.020714
    145 H64         7.1270    2.1170   -4.2220 hc        1 MOL      0.020714
    146 H65         4.7110    0.8890   -2.8560 h1        1 MOL      0.033918
    147 H66         5.9100    0.1250   -3.7730 h1        1 MOL      0.033918
    148 N13         4.8600    2.0520    0.2600 n         1 MOL     -0.154807
    149 C50         4.1160    2.1990    1.5490 c3        1 MOL     -0.030983
    150 C51         4.7990    1.4930    2.6750 c         1 MOL      0.449101
    151 O21         4.6940    2.0550    3.7280 o         1 MOL     -0.573026
    152 C52         2.6410    1.7050    1.4670 c3        1 MOL     -0.232841
    153 C53         1.8090    2.4040    0.3400 c3        1 MOL      0.028264
    154 C54         0.3900    1.7480    0.4000 c         1 MOL      0.448315
    155 O22        -0.5970    2.2270   -0.2290 o         1 MOL     -0.629097
    156 O23         0.2940    0.6160    1.0060 o         1 MOL     -0.629097
    157 H67         4.6730    1.2160   -0.2820 hn        1 MOL      0.156269
    158 H68         4.0850    3.2600    1.7850 h1        1 MOL      0.126654
    159 H69         2.1140    1.9150    2.4030 hc        1 MOL      0.111063
    160 H70         2.5760    0.6280    1.3290 hc        1 MOL      0.111063
    161 H71         2.3030    2.2610   -0.6210 hc        1 MOL      0.047487
    162 H72         1.7580    3.4980    0.3560 hc        1 MOL      0.047487
    163 N14         5.7080    0.5540    2.4930 n         1 MOL      0.017630
    164 C55         6.7180    0.0940    3.5540 c3        1 MOL     -0.213863
    165 H73         7.6670   -0.1410    3.0730 h1        1 MOL      0.086146
    166 H74         6.8680    0.8900    4.2840 h1        1 MOL      0.086146
    167 H75         6.3370   -0.7940    4.0590 h1        1 MOL      0.086146
    168 H76         5.8680    0.1420    1.5920 hn        1 MOL      0.022953
    169 Ca1        -2.1540   -0.0580   -0.0040 Ca        1 MOL      1.677837
    170 O24        -4.7050   -0.8470    1.4960 oh        1 MOL     -0.783945
    171 H77        -5.1140   -1.2360    2.2690 ho        1 MOL      0.390688
    172 H78        -4.9590    0.0720    1.5260 ho        1 MOL      0.390688
    173 O25        -1.6980   -0.0770    2.7910 oh        1 MOL     -0.783945
    174 H79        -1.6760   -0.0020    3.7350 ho        1 MOL      0.390688
    175 H80        -0.8060    0.1380    2.5090 ho        1 MOL      0.390688
@<TRIPOS>BOND
     1    1    2 1   
     2    1    4 1   
     3    1    5 1   
     4    1    6 1   
     5    2    3 2   
     6    2    7 1   
     7    7    8 1   
     8    7   15 1   
     9    8    9 1   
    10    8   11 1   
    11    8   16 1   
    12    9   10 2   
    13    9   19 1   
    14   11   12 1   
    15   11   17 1   
    16   11   18 1   
    17   12   13 1   
    18   12   14 1   
    19   19   20 1   
    20   19   24 1   
    21   20   21 1   
    22   20   23 1   
    23   20   25 1   
    24   21   22 2   
    25   21   29 1   
    26   23   26 1   
    27   23   27 1   
    28   23   28 1   
    29   29   30 1   
    30   29   37 1   
    31   30   31 1   
    32   30   33 1   
    33   30   38 1   
    34   31   32 2   
    35   31   41 1   
    36   33   34 1   
    37   33   39 1   
    38   33   40 1   
    39   34   35 1   
    40   34   36 1   
    41   41   42 1   
    42   41   45 1   
    43   42   43 1   
    44   42   46 1   
    45   42   47 1   
    46   43   44 2   
    47   43   48 1   
    48   48   49 1   
    49   48   56 1   
    50   49   50 1   
    51   49   52 1   
    52   49   57 1   
    53   50   51 2   
    54   50   62 1   
    55   52   53 1   
    56   52   58 1   
    57   52   59 1   
    58   53   54 1   
    59   53   55 2   
    60   54   60 1   
    61   54   61 1   
    62   62   63 1   
    63   62   66 1   
    64   63   64 1   
    65   63   67 1   
    66   63   68 1   
    67   64   65 2   
    68   64   69 1   
    69   69   70 1   
    70   69   76 1   
    71   70   71 1   
    72   70   73 1   
    73   70   77 1   
    74   71   72 2   
    75   71   83 1   
    76   73   74 1   
    77   73   75 1   
    78   73   78 1   
    79   74   80 1   
    80   74   81 1   
    81   74   82 1   
    82   75   79 1   
    83   83   84 1   
    84   83   91 1   
    85   84   85 1   
    86   84   87 1   
    87   84   92 1   
    88   85   86 2   
    89   85  102 1   
    90   87   88 1   
    91   87   89 1   
    92   87   93 1   
    93   88   90 1   
    94   88   94 1   
    95   88   95 1   
    96   89   96 1   
    97   89   97 1   
    98   89   98 1   
    99   90   99 1   
   100   90  100 1   
   101   90  101 1   
   102  102  103 1   
   103  102  110 1   
   104  103  104 1   
   105  103  106 1   
   106  103  111 1   
   107  104  105 2   
   108  104  114 1   
   109  106  107 1   
   110  106  112 1   
   111  106  113 1   
   112  107  108 1   
   113  107  109 1   
   114  114  115 1   
   115  114  125 1   
   116  115  116 1   
   117  115  118 1   
   118  115  126 1   
   119  116  117 2   
   120  116  134 1   
   121  118  119 1   
   122  118  127 1   
   123  118  128 1   
   124  119  120 ar  
   125  119  121 ar  
   126  120  122 ar  
   127  120  129 1   
   128  121  123 ar  
   129  121  130 1   
   130  122  124 ar  
   131  122  131 1   
   132  123  124 ar  
   133  123  132 1   
   134  124  133 1   
   135  134  135 1   
   136  134  140 1   
   137  135  136 1   
   138  135  138 1   
   139  135  141 1   
   140  136  137 2   
   141  136  148 1   
   142  138  139 1   
   143  138  142 1   
   144  138  143 1   
   145  139  140 1   
   146  139  144 1   
   147  139  145 1   
   148  140  146 1   
   149  140  147 1   
   150  148  149 1   
   151  148  157 1   
   152  149  150 1   
   153  149  152 1   
   154  149  158 1   
   155  150  151 2   
   156  150  163 1   
   157  152  153 1   
   158  152  159 1   
   159  152  160 1   
   160  153  154 1   
   161  153  161 1   
   162  153  162 1   
   163  154  155 1   
   164  154  156 1   
   165  163  164 1   
   166  163  168 1   
   167  164  165 1   
   168  164  166 1   
   169  164  167 1   
   170  170  171 1   
   171  170  172 1   
   172  173  174 1   
   173  173  175 1   
@<TRIPOS>SUBSTRUCTURE
     1 MOL         1 TEMP              0 ****  ****    0 ROOT
