@<TRIPOS>MOLECULE
MOL
  175   173     1     0     0
SMALL
resp


@<TRIPOS>ATOM
      1 C1         -0.5880    3.6340    5.7180 c3        1 MOL     -0.249283
      2 C2         -0.8610    3.1770    4.3210 c         1 MOL      0.747659
      3 O1          0.0760    3.3010    3.5360 o         1 MOL     -0.575119
      4 H1         -1.0830    2.9650    6.4220 hc        1 MOL      0.054133
      5 H2          0.4860    3.6250    5.9020 hc        1 MOL      0.054133
      6 H3         -0.9700    4.6470    5.8510 hc        1 MOL      0.054133
      7 N1         -2.0810    2.6790    3.9810 n         1 MOL     -0.651000
      8 C3         -2.5140    2.3330    2.6640 c3        1 MOL      0.071187
      9 C4         -3.0530    3.4300    1.7940 c         1 MOL      0.685335
     10 O2         -4.1290    3.9670    2.0590 o         1 MOL     -0.615638
     11 C5         -3.5850    1.1520    2.9070 c3        1 MOL      0.118164
     12 C6         -4.1390    0.4920    1.5560 c         1 MOL      0.637615
     13 O3         -5.2420    0.0040    1.7010 o         1 MOL     -0.700637
     14 O4         -3.5600    0.6590    0.4570 o         1 MOL     -0.700637
     15 H4         -2.6870    2.3150    4.6940 hn        1 MOL      0.316365
     16 H5         -1.6230    1.9250    2.1820 h1        1 MOL     -0.006024
     17 H6         -4.3760    1.6680    3.4470 hc        1 MOL     -0.040455
     18 H7         -3.0920    0.3900    3.5150 hc        1 MOL     -0.040455
     19 N2         -2.3020    3.9160    0.8020 n         1 MOL     -0.453106
     20 C7         -2.6170    5.1840    0.0920 c3        1 MOL      0.245822
     21 C8         -3.6530    5.1440   -0.9520 c         1 MOL      0.449325
     22 O5         -4.3080    6.1380   -1.0660 o         1 MOL     -0.594866
     23 C9         -1.2610    5.6010   -0.5410 c3        1 MOL     -0.539144
     24 H8         -1.5080    3.3870    0.5020 hn        1 MOL      0.281891
     25 H9         -2.8970    5.9300    0.8360 h1        1 MOL      0.045894
     26 H10        -0.5410    5.7880    0.2570 hc        1 MOL      0.142296
     27 H11        -0.9250    4.8510   -1.2590 hc        1 MOL      0.142296
     28 H12        -1.5240    6.4410   -1.1880 hc        1 MOL      0.142296
     29 N3         -3.8850    4.0510   -1.6570 n         1 MOL     -0.255743
     30 C10        -5.0060    3.8400   -2.6640 c3        1 MOL      0.044435
     31 C11        -6.0330    2.8300   -2.1700 c         1 MOL      0.352937
     32 O6         -6.8800    2.3790   -2.9410 o         1 MOL     -0.510449
     33 C12        -4.4690    3.2560   -4.0140 c3        1 MOL     -0.206008
     34 C13        -3.7950    1.9090   -3.8410 c         1 MOL      0.850219
     35 O7         -3.4850    1.4900   -2.7280 o         1 MOL     -0.764860
     36 O8         -3.2720    1.3510   -4.8730 o         1 MOL     -0.764860
     37 H13        -3.3040    3.2490   -1.4100 hn        1 MOL      0.213331
     38 H14        -5.4550    4.8090   -2.8950 h1        1 MOL      0.103243
     39 H15        -3.6920    3.9260   -4.3890 hc        1 MOL      0.040619
     40 H16        -5.2530    3.1270   -4.7530 hc        1 MOL      0.040619
     41 N4         -6.0200    2.4330   -0.9000 n         1 MOL     -0.055709
     42 C14        -7.1790    1.9140   -0.1830 c3        1 MOL     -0.374934
     43 C15        -7.5680    0.4770   -0.4980 c         1 MOL      0.673501
     44 O9         -8.7650    0.1450   -0.2430 o         1 MOL     -0.623956
     45 H17        -5.2480    2.6780   -0.2920 hn        1 MOL      0.138945
     46 H18        -8.0780    2.4870   -0.3860 h1        1 MOL      0.151141
     47 H19        -6.8580    1.9780    0.8540 h1        1 MOL      0.151141
     48 N5         -6.6960   -0.3790   -1.0600 n         1 MOL     -0.406947
     49 C16        -6.9910   -1.7530   -1.3720 c3        1 MOL      0.005104
     50 C17        -6.8060   -2.7620   -0.1740 c         1 MOL      0.453392
     51 O10        -6.9260   -3.9660   -0.4130 o         1 MOL     -0.555119
     52 C18        -6.3130   -2.1130   -2.6990 c3        1 MOL     -0.250106
     53 C19        -4.8540   -2.3620   -2.6760 c         1 MOL      0.721884
     54 N6         -4.3650   -3.5000   -3.1350 n         1 MOL     -0.807141
     55 O11        -4.0440   -1.5530   -2.1950 o         1 MOL     -0.616563
     56 H20        -5.7780    0.0100   -1.2260 hn        1 MOL      0.265410
     57 H21        -8.0530   -1.7670   -1.6200 h1        1 MOL      0.128340
     58 H22        -6.4210   -1.4070   -3.5250 hc        1 MOL      0.090498
     59 H23        -6.8640   -2.9960   -3.0040 hc        1 MOL      0.090498
     60 H24        -4.9850   -4.2280   -3.4700 hn        1 MOL      0.363309
     61 H25        -3.3640   -3.6080   -3.1850 hn        1 MOL      0.363309
     62 N7         -6.5520   -2.2560    1.0370 n         1 MOL     -0.324905
     63 C20        -6.4600   -3.1310    2.2520 c3        1 MOL     -0.187038
     64 C21        -5.0940   -3.7960    2.4790 c         1 MOL      0.505677
     65 O12        -4.8270   -4.2510    3.5710 o         1 MOL     -0.563910
     66 H26        -6.2070   -1.3190    1.1260 hn        1 MOL      0.315757
     67 H27        -7.2010   -3.9130    2.1460 h1        1 MOL      0.130246
     68 H28        -6.7790   -2.5600    3.1340 h1        1 MOL      0.130246
     69 N8         -4.1820   -3.7080    1.5230 n         1 MOL     -0.303601
     70 C22        -2.7390   -4.0950    1.6250 c3        1 MOL      0.206407
     71 C23        -1.7970   -2.9640    1.4430 c         1 MOL      0.623066
     72 O13        -2.0810   -2.0580    0.6240 o         1 MOL     -0.658876
     73 C24        -2.3260   -5.4400    0.9570 c3        1 MOL      0.254990
     74 C25        -3.2540   -6.6110    1.2350 c3        1 MOL     -0.260649
     75 O14        -2.1120   -5.2830   -0.4300 oh        1 MOL     -0.600117
     76 H29        -4.4460   -3.3340    0.6260 hn        1 MOL      0.223491
     77 H30        -2.6770   -4.3630    2.6830 h1        1 MOL     -0.004495
     78 H31        -1.3600   -5.6730    1.3980 h1        1 MOL     -0.004635
     79 H32        -2.1820   -6.0840   -0.9400 ho        1 MOL      0.392506
     80 H33        -2.9350   -7.5850    0.8490 hc        1 MOL      0.069203
     81 H34        -3.3840   -6.7320    2.3090 hc        1 MOL      0.069203
     82 H35        -4.2310   -6.3650    0.8110 hc        1 MOL      0.069203
     83 N9         -0.5650   -3.0440    2.0550 n         1 MOL     -0.509779
     84 C26         0.5640   -2.1630    1.7220 c3        1 MOL      0.092367
     85 C27         1.6810   -2.7800    0.9050 c         1 MOL      0.388144
     86 O15         2.0600   -3.9230    1.0840 o         1 MOL     -0.587595
     87 C28         1.1430   -1.3730    3.0000 c3        1 MOL      0.482542
     88 C29         2.1730   -2.1730    3.9020 c3        1 MOL     -0.014136
     89 C30         0.0030   -0.8360    3.8760 c3        1 MOL     -0.144795
     90 C31         2.8230   -1.4140    5.0710 c3        1 MOL     -0.280144
     91 H36        -0.3130   -3.7490    2.7300 hn        1 MOL      0.267078
     92 H37         0.0600   -1.4180    1.1200 h1        1 MOL      0.024884
     93 H38         1.7750   -0.5610    2.6510 hc        1 MOL     -0.276575
     94 H39         2.9500   -2.5500    3.2310 hc        1 MOL     -0.011466
     95 H40         1.6460   -3.0340    4.3180 hc        1 MOL     -0.011466
     96 H41        -0.4690   -1.7550    4.2160 hc        1 MOL      0.004056
     97 H42         0.3810   -0.3820    4.7990 hc        1 MOL      0.004056
     98 H43        -0.6350   -0.2310    3.2370 hc        1 MOL      0.004056
     99 H44         3.3130   -0.5130    4.6980 hc        1 MOL      0.071556
    100 H45         2.1040   -1.0230    5.7890 hc        1 MOL      0.071556
    101 H46         3.5700   -2.0680    5.5110 hc        1 MOL      0.071556
    102 N10         2.1850   -1.9870   -0.0510 n         1 MOL     -0.134524
    103 C32         3.2650   -2.3230   -0.9390 c3        1 MOL      0.067475
    104 C33         4.5400   -1.6240   -0.3200 c         1 MOL      0.478663
    105 O16         4.4870   -0.8460    0.6050 o         1 MOL     -0.439803
    106 C34         2.7980   -1.9270   -2.3310 c3        1 MOL     -0.269173
    107 C35         3.7130   -2.3800   -3.4930 c         1 MOL      0.690304
    108 O17         3.2160   -2.4360   -4.6490 o         1 MOL     -0.690725
    109 O18         4.9180   -2.7370   -3.3490 o         1 MOL     -0.690725
    110 H47         1.5880   -1.2020   -0.2540 hn        1 MOL      0.162933
    111 H48         3.3870   -3.3950   -0.9140 h1        1 MOL      0.070728
    112 H49         2.6770   -0.8450   -2.3460 hc        1 MOL      0.056706
    113 H50         1.7300   -2.1460   -2.3910 hc        1 MOL      0.056706
    114 N11         5.6630   -1.9190   -0.9800 n         1 MOL     -0.653041
    115 C36         6.9970   -1.3140   -0.6470 c3        1 MOL      0.443456
    116 C37         7.0130    0.2470   -0.4990 c         1 MOL      0.324302
    117 O19         7.5910    0.7460    0.4590 o         1 MOL     -0.503893
    118 C38         8.0660   -1.8240   -1.6660 c3        1 MOL     -0.308103
    119 C39         9.3730   -1.3040   -1.3980 ca        1 MOL      0.093851
    120 C40         9.9590   -1.5700   -0.0970 ca        1 MOL     -0.110090
    121 C41        10.1390   -0.6400   -2.3640 ca        1 MOL     -0.110090
    122 C42        11.2890   -1.2240    0.1470 ca        1 MOL     -0.171148
    123 C43        11.4420   -0.2990   -2.0590 ca        1 MOL     -0.171148
    124 C44        12.0800   -0.6040   -0.8210 ca        1 MOL     -0.074417
    125 H51         5.5700   -2.5500   -1.7650 hn        1 MOL      0.305015
    126 H52         7.3420   -1.6700    0.3200 h1        1 MOL      0.014728
    127 H53         7.7750   -1.5350   -2.6750 hc        1 MOL      0.107789
    128 H54         8.0120   -2.9200   -1.6790 hc        1 MOL      0.107789
    129 H55         9.3070   -1.9970    0.6540 ha        1 MOL      0.101612
    130 H56         9.8310   -0.4130   -3.3750 ha        1 MOL      0.101612
    131 H57        11.6740   -1.2270    1.1590 ha        1 MOL      0.111539
    132 H58        11.9730    0.2260   -2.8330 ha        1 MOL      0.111539
    133 H59        13.1240   -0.3980   -0.6560 ha        1 MOL      0.088235
    134 N12         6.2730    1.0570   -1.2890 n         1 MOL     -0.138988
    135 C45         6.2850    2.5740   -1.1040 c3        1 MOL      0.025920
    136 C46         5.4640    2.9910    0.1430 c         1 MOL      0.242252
    137 O20         5.9110    3.8070    0.9450 o         1 MOL     -0.494139
    138 C47         5.5820    3.0490   -2.3740 c3        1 MOL      0.041599
    139 C48         5.8760    1.9360   -3.4230 c3        1 MOL     -0.146044
    140 C49         5.7060    0.6610   -2.5980 c3        1 MOL      0.008021
    141 H60         7.3200    2.9090   -1.1180 h1        1 MOL      0.080432
    142 H61         4.5090    3.1250   -2.1900 hc        1 MOL     -0.002452
    143 H62         5.9430    4.0200   -2.7190 hc        1 MOL     -0.002452
    144 H63         5.1080    1.9010   -4.1940 hc        1 MOL      0.051075
    145 H64         6.8620    2.0430   -3.8680 hc        1 MOL      0.051075
    146 H65         4.6680    0.3210   -2.5720 h1        1 MOL      0.062901
    147 H66         6.3020   -0.1100   -3.0840 h1        1 MOL      0.062901
    148 N13         4.4870    2.1640    0.4820 n         1 MOL      0.043308
    149 C50         3.6760    2.3580    1.6550 c3        1 MOL     -0.337073
    150 C51         4.2680    1.9000    2.8840 c         1 MOL      0.580342
    151 O21         4.1800    2.6250    3.8750 o         1 MOL     -0.605504
    152 C52         2.3700    1.6910    1.3060 c3        1 MOL      0.148729
    153 C53         1.5910    2.3310    0.1830 c3        1 MOL     -0.424800
    154 C54         0.4280    1.4050   -0.1780 c         1 MOL      0.784475
    155 O22         0.5400    0.2240   -0.6860 o         1 MOL     -0.749885
    156 O23        -0.7470    1.7750   -0.0980 o         1 MOL     -0.749885
    157 H67         4.2250    1.4520   -0.1840 hn        1 MOL      0.207527
    158 H68         3.5290    3.4350    1.7470 h1        1 MOL      0.147067
    159 H69         1.8560    1.6530    2.2650 hc        1 MOL      0.086055
    160 H70         2.5520    0.6850    0.9410 hc        1 MOL      0.086055
    161 H71         2.1880    2.4130   -0.7200 hc        1 MOL      0.110524
    162 H72         1.2430    3.3220    0.4920 hc        1 MOL      0.110524
    163 N14         5.0420    0.8350    2.8620 n         1 MOL      0.065053
    164 C55         5.9920    0.4280    3.9330 c3        1 MOL     -0.276098
    165 H73         6.9170    0.9930    3.8310 h1        1 MOL      0.093396
    166 H74         5.5480    0.6300    4.9090 h1        1 MOL      0.093396
    167 H75         6.2050   -0.6380    3.8450 h1        1 MOL      0.093396
    168 H76         5.0370    0.4100    1.9450 hn        1 MOL     -0.012440
    169 Ca1        -1.9170   -0.2690   -1.2470 Ca        1 MOL      1.796459
    170 O24        -1.1680    0.3100   -3.8010 oh        1 MOL     -0.891148
    171 H77        -0.9780   -0.2890   -4.5290 ho        1 MOL      0.420536
    172 H78        -1.8010    0.9280   -4.1680 ho        1 MOL      0.420536
    173 O25        -1.2640   -2.5930   -2.1980 oh        1 MOL     -0.891148
    174 H79        -0.9440   -2.7120   -3.0920 ho        1 MOL      0.420536
    175 H80        -1.2780   -3.4650   -1.8200 ho        1 MOL      0.420536
@<TRIPOS>BOND
     1    1    2 1   
     2    1    4 1   
     3    1    5 1   
     4    1    6 1   
     5    2    3 2   
     6    2    7 1   
     7    7    8 1   
     8    7   15 1   
     9    8    9 1   
    10    8   11 1   
    11    8   16 1   
    12    9   10 2   
    13    9   19 1   
    14   11   12 1   
    15   11   17 1   
    16   11   18 1   
    17   12   13 1   
    18   12   14 1   
    19   19   20 1   
    20   19   24 1   
    21   20   21 1   
    22   20   23 1   
    23   20   25 1   
    24   21   22 2   
    25   21   29 1   
    26   23   26 1   
    27   23   27 1   
    28   23   28 1   
    29   29   30 1   
    30   29   37 1   
    31   30   31 1   
    32   30   33 1   
    33   30   38 1   
    34   31   32 2   
    35   31   41 1   
    36   33   34 1   
    37   33   39 1   
    38   33   40 1   
    39   34   35 1   
    40   34   36 1   
    41   41   42 1   
    42   41   45 1   
    43   42   43 1   
    44   42   46 1   
    45   42   47 1   
    46   43   44 2   
    47   43   48 1   
    48   48   49 1   
    49   48   56 1   
    50   49   50 1   
    51   49   52 1   
    52   49   57 1   
    53   50   51 2   
    54   50   62 1   
    55   52   53 1   
    56   52   58 1   
    57   52   59 1   
    58   53   54 1   
    59   53   55 2   
    60   54   60 1   
    61   54   61 1   
    62   62   63 1   
    63   62   66 1   
    64   63   64 1   
    65   63   67 1   
    66   63   68 1   
    67   64   65 2   
    68   64   69 1   
    69   69   70 1   
    70   69   76 1   
    71   70   71 1   
    72   70   73 1   
    73   70   77 1   
    74   71   72 2   
    75   71   83 1   
    76   73   74 1   
    77   73   75 1   
    78   73   78 1   
    79   74   80 1   
    80   74   81 1   
    81   74   82 1   
    82   75   79 1   
    83   83   84 1   
    84   83   91 1   
    85   84   85 1   
    86   84   87 1   
    87   84   92 1   
    88   85   86 2   
    89   85  102 1   
    90   87   88 1   
    91   87   89 1   
    92   87   93 1   
    93   88   90 1   
    94   88   94 1   
    95   88   95 1   
    96   89   96 1   
    97   89   97 1   
    98   89   98 1   
    99   90   99 1   
   100   90  100 1   
   101   90  101 1   
   102  102  103 1   
   103  102  110 1   
   104  103  104 1   
   105  103  106 1   
   106  103  111 1   
   107  104  105 2   
   108  104  114 1   
   109  106  107 1   
   110  106  112 1   
   111  106  113 1   
   112  107  108 1   
   113  107  109 1   
   114  114  115 1   
   115  114  125 1   
   116  115  116 1   
   117  115  118 1   
   118  115  126 1   
   119  116  117 2   
   120  116  134 1   
   121  118  119 1   
   122  118  127 1   
   123  118  128 1   
   124  119  120 ar  
   125  119  121 ar  
   126  120  122 ar  
   127  120  129 1   
   128  121  123 ar  
   129  121  130 1   
   130  122  124 ar  
   131  122  131 1   
   132  123  124 ar  
   133  123  132 1   
   134  124  133 1   
   135  134  135 1   
   136  134  140 1   
   137  135  136 1   
   138  135  138 1   
   139  135  141 1   
   140  136  137 2   
   141  136  148 1   
   142  138  139 1   
   143  138  142 1   
   144  138  143 1   
   145  139  140 1   
   146  139  144 1   
   147  139  145 1   
   148  140  146 1   
   149  140  147 1   
   150  148  149 1   
   151  148  157 1   
   152  149  150 1   
   153  149  152 1   
   154  149  158 1   
   155  150  151 2   
   156  150  163 1   
   157  152  153 1   
   158  152  159 1   
   159  152  160 1   
   160  153  154 1   
   161  153  161 1   
   162  153  162 1   
   163  154  155 1   
   164  154  156 1   
   165  163  164 1   
   166  163  168 1   
   167  164  165 1   
   168  164  166 1   
   169  164  167 1   
   170  170  171 1   
   171  170  172 1   
   172  173  174 1   
   173  173  175 1   
@<TRIPOS>SUBSTRUCTURE
     1 MOL         1 TEMP              0 ****  ****    0 ROOT
