@<TRIPOS>MOLECULE
MOL
  189   185     1     0     0
SMALL
resp


@<TRIPOS>ATOM
      1 C1          0.2620    2.5390    5.8030 c3        1 MOL     -0.366427
      2 C2         -0.2370    2.1980    4.3620 c         1 MOL      0.709872
      3 O1          0.6120    2.3320    3.4330 o         1 MOL     -0.600142
      4 H1         -0.1190    1.7960    6.5040 hc        1 MOL      0.091422
      5 H2          1.3520    2.5300    5.8220 hc        1 MOL      0.091422
      6 H3         -0.0990    3.5270    6.0890 hc        1 MOL      0.091422
      7 N1         -1.4260    1.6790    4.1150 n         1 MOL     -0.550563
      8 C3         -2.0020    1.6160    2.7280 c3        1 MOL      0.238003
      9 C4         -2.1000    2.9910    2.0580 c         1 MOL      0.331973
     10 O2         -2.9050    3.7350    2.6010 o         1 MOL     -0.536320
     11 C5         -3.3370    0.9210    2.8340 c3        1 MOL     -0.364816
     12 C6         -3.9210    0.6210    1.5080 c         1 MOL      0.927268
     13 O3         -5.0690    0.1670    1.5960 o         1 MOL     -0.692379
     14 O4         -3.3340    0.7440    0.3940 o         1 MOL     -0.692379
     15 H4         -2.0030    1.5120    4.9230 hn        1 MOL      0.325420
     16 H5         -1.2730    1.0400    2.1530 h1        1 MOL     -0.138457
     17 H6         -4.0060    1.5490    3.4070 hc        1 MOL      0.093177
     18 H7         -3.1860   -0.0190    3.3720 hc        1 MOL      0.093177
     19 N2         -1.2830    3.3220    1.0800 n         1 MOL     -0.110203
     20 C7         -1.1140    4.6620    0.7050 c3        1 MOL     -0.060296
     21 C8         -1.9960    5.1090   -0.5640 c         1 MOL      0.406265
     22 O5         -2.1220    6.3150   -0.8140 o         1 MOL     -0.551642
     23 C9          0.3470    4.9320    0.3430 c3        1 MOL     -0.140697
     24 C10         1.3910    4.7520    1.4980 c3        1 MOL     -0.001761
     25 C11         0.9920    5.5440    2.7090 c3        1 MOL     -0.109217
     26 C12         1.9950    5.4000    3.8360 c3        1 MOL      0.030058
     27 N3          1.5760    6.1330    5.0810 n4        1 MOL     -0.358075
     28 H8         -0.6970    2.5910    0.6940 hn        1 MOL      0.407856
     29 H9         -1.3970    5.3030    1.5460 h1        1 MOL      0.063730
     30 H10         0.4120    6.0170    0.2310 hc        1 MOL      0.047821
     31 H11         0.5570    4.5260   -0.6490 hc        1 MOL      0.047821
     32 H12         2.3420    5.1600    1.1420 hc        1 MOL      0.018439
     33 H13         1.4840    3.6950    1.7420 hc        1 MOL      0.018439
     34 H14         0.0350    5.1500    3.0400 hc        1 MOL      0.061494
     35 H15         0.8910    6.5820    2.4010 hc        1 MOL      0.061494
     36 H16         2.9420    5.8810    3.6000 hx        1 MOL      0.095337
     37 H17         2.1260    4.3390    4.0370 hx        1 MOL      0.095337
     38 H18         1.4740    7.1300    4.9090 hn        1 MOL      0.316546
     39 H19         0.6490    5.8280    5.3470 hn        1 MOL      0.316546
     40 H20         2.2120    5.9620    5.8430 hn        1 MOL      0.316546
     41 N4         -2.5540    4.1120   -1.2450 n         1 MOL     -0.091855
     42 C13        -3.6370    4.3700   -2.3250 c3        1 MOL     -0.070611
     43 C14        -5.0590    4.0380   -1.9540 c         1 MOL      0.552631
     44 O6         -5.9870    4.6290   -2.5090 o         1 MOL     -0.549288
     45 C15        -3.2760    3.7540   -3.6640 c3        1 MOL     -0.105961
     46 C16        -2.8530    2.2620   -3.6170 c         1 MOL      0.599359
     47 O7         -2.7170    1.6990   -4.6750 o         1 MOL     -0.624819
     48 O8         -2.7960    1.6620   -2.5200 o         1 MOL     -0.624819
     49 H21        -2.3270    3.1460   -1.0450 hn        1 MOL      0.004912
     50 H22        -3.6530    5.4500   -2.4540 h1        1 MOL      0.081656
     51 H23        -2.4850    4.3140   -4.1700 hc        1 MOL      0.041499
     52 H24        -4.1470    3.8420   -4.3030 hc        1 MOL      0.041499
     53 N5         -5.3240    3.1760   -0.9450 n         1 MOL     -0.354252
     54 C17        -6.6290    2.7790   -0.4810 c3        1 MOL     -0.015162
     55 C18        -7.2440    1.4230   -0.9840 c         1 MOL      0.535192
     56 O9         -8.4340    1.3230   -1.1960 o         1 MOL     -0.587840
     57 H25        -4.5570    2.6540   -0.5500 hn        1 MOL      0.221413
     58 H26        -7.4090    3.4930   -0.7460 h1        1 MOL      0.058126
     59 H27        -6.5880    2.6950    0.6110 h1        1 MOL      0.058126
     60 N6         -6.4200    0.4400   -1.3060 n         1 MOL     -0.107993
     61 C19        -6.9130   -0.8590   -1.9010 c3        1 MOL     -0.009644
     62 C20        -7.1780   -2.0550   -0.9030 c         1 MOL      0.347156
     63 O10        -7.7960   -3.0480   -1.3060 o         1 MOL     -0.540787
     64 C21        -5.9710   -1.3850   -2.9860 c3        1 MOL     -0.356625
     65 C22        -4.5030   -1.6080   -2.4810 c         1 MOL      0.735606
     66 O11        -4.1810   -1.9800   -1.3400 o         1 MOL     -0.692710
     67 O12        -3.5920   -1.3450   -3.2990 o         1 MOL     -0.692710
     68 H28        -5.5010    0.4110   -0.8990 hn        1 MOL     -0.001138
     69 H29        -7.8840   -0.6540   -2.3450 h1        1 MOL      0.126982
     70 H30        -6.0320   -0.6250   -3.7720 hc        1 MOL      0.120958
     71 H31        -6.2390   -2.3620   -3.3770 hc        1 MOL      0.120958
     72 N7         -6.6880   -2.0230    0.2960 n         1 MOL     -0.097671
     73 C23        -6.8780   -3.0530    1.3370 c3        1 MOL     -0.081906
     74 C24        -5.7290   -4.0130    1.7000 c         1 MOL      0.494177
     75 O13        -5.9120   -4.9540    2.4600 o         1 MOL     -0.565445
     76 H32        -6.1090   -1.2230    0.5210 hn        1 MOL      0.136773
     77 H33        -7.8380   -3.5370    1.1550 h1        1 MOL      0.069648
     78 H34        -6.9990   -2.4690    2.2420 h1        1 MOL      0.069648
     79 N8         -4.5380   -3.7390    1.2160 n         1 MOL     -0.188756
     80 C25        -3.2780   -4.5500    1.2220 c3        1 MOL     -0.216097
     81 C26        -2.0430   -3.6100    1.1120 c         1 MOL      0.552199
     82 O14        -2.1900   -2.4730    0.7070 o         1 MOL     -0.641918
     83 C27        -3.1690   -5.4410    0.0890 c3        1 MOL      0.553007
     84 C28        -3.9390   -6.7160    0.2640 c3        1 MOL     -0.663557
     85 O15        -3.7070   -4.9270   -1.1400 oh        1 MOL     -0.635464
     86 H35        -4.4990   -2.8700    0.6980 hn        1 MOL      0.207250
     87 H36        -3.1920   -5.1210    2.1390 h1        1 MOL      0.114527
     88 H37        -2.1190   -5.6340   -0.1240 h1        1 MOL     -0.038047
     89 H38        -3.8800   -4.0030   -0.9580 ho        1 MOL      0.407593
     90 H39        -3.8760   -7.1030    1.2810 hc        1 MOL      0.172077
     91 H40        -4.9560   -6.6140   -0.1080 hc        1 MOL      0.172077
     92 H41        -3.5540   -7.3720   -0.5100 hc        1 MOL      0.172077
     93 N9         -0.8560   -4.0350    1.4860 n         1 MOL     -0.466512
     94 C29         0.3780   -3.2510    1.5870 c3        1 MOL      0.161665
     95 C30         1.4840   -3.8590    0.6570 c         1 MOL      0.464709
     96 O16         1.6750   -5.0910    0.6030 o         1 MOL     -0.555272
     97 C31         0.7720   -3.1020    3.0920 c3        1 MOL     -0.098644
     98 C32        -0.0120   -1.8910    3.6450 c3        1 MOL      0.025462
     99 C33         2.3040   -2.9670    3.2310 c3        1 MOL      0.093403
    100 C34         0.0840   -1.7840    5.1520 c3        1 MOL     -0.319258
    101 H42        -0.8210   -4.9810    1.8250 hn        1 MOL      0.253794
    102 H43         0.1920   -2.2410    1.2140 h1        1 MOL      0.120149
    103 H44         0.4470   -4.0060    3.5980 hc        1 MOL      0.054323
    104 H45        -1.0290   -2.0600    3.3040 hc        1 MOL      0.073413
    105 H46         0.3920   -0.9830    3.1980 hc        1 MOL      0.073413
    106 H47         2.8630   -3.7930    2.8020 hc        1 MOL     -0.036118
    107 H48         2.6210   -1.9610    2.9340 hc        1 MOL     -0.036118
    108 H49         2.6060   -3.0200    4.2790 hc        1 MOL     -0.036118
    109 H50        -0.2210   -2.7400    5.5830 hc        1 MOL      0.075357
    110 H51         1.0480   -1.4020    5.5100 hc        1 MOL      0.075357
    111 H52        -0.5640   -0.9810    5.5000 hc        1 MOL      0.075357
    112 N10         2.1120   -3.0260   -0.1630 n         1 MOL     -0.242920
    113 C35         3.3240   -3.2800   -1.0190 c3        1 MOL      0.101810
    114 C36         4.7460   -3.1230   -0.4100 c         1 MOL      0.287390
    115 O17         4.8970   -2.7900    0.7410 o         1 MOL     -0.334855
    116 C37         3.2880   -2.4420   -2.2550 c3        1 MOL      0.106792
    117 C38         1.9310   -2.2880   -2.9460 c3        1 MOL     -0.247961
    118 O18         3.6460   -1.0540   -1.9630 oh        1 MOL     -0.442682
    119 H53         1.7850   -2.0760   -0.1480 hn        1 MOL      0.189325
    120 H54         3.2230   -4.2980   -1.4050 h1        1 MOL      0.068756
    121 H55         3.9320   -2.9020   -3.0100 h1        1 MOL      0.038582
    122 H56         3.3350   -0.4650   -2.6520 ho        1 MOL      0.363713
    123 H57         1.3010   -1.5030   -2.5340 hc        1 MOL      0.072643
    124 H58         2.0630   -1.8550   -3.9360 hc        1 MOL      0.072643
    125 H59         1.4720   -3.2700   -3.0620 hc        1 MOL      0.072643
    126 N11         5.7480   -3.3660   -1.2240 n         1 MOL     -0.195786
    127 C39         7.1840   -3.0820   -0.8190 c3        1 MOL     -0.085921
    128 C40         7.3470   -1.6050   -0.4490 c         1 MOL      0.356555
    129 O19         7.8250   -1.3190    0.6670 o         1 MOL     -0.488932
    130 C41         8.1450   -3.4740   -1.9780 c3        1 MOL      0.248118
    131 C42         8.3270   -4.9190   -1.8640 c3        1 MOL     -0.350733
    132 O20         7.6690   -2.9850   -3.2120 oh        1 MOL     -0.645220
    133 H60         5.6770   -3.9270   -2.0630 hn        1 MOL      0.243295
    134 H61         7.4910   -3.6290    0.0750 h1        1 MOL      0.114995
    135 H62         9.1280   -3.0360   -1.8210 h1        1 MOL      0.066041
    136 H63         8.0850   -3.5220   -3.8940 ho        1 MOL      0.425591
    137 H64         7.3630   -5.4200   -2.0000 hc        1 MOL      0.101173
    138 H65         9.0740   -5.2350   -2.5970 hc        1 MOL      0.101173
    139 H66         8.7030   -5.3390   -0.9310 hc        1 MOL      0.101173
    140 N12         6.7660   -0.7250   -1.2510 n         1 MOL     -0.172323
    141 C43         6.8880    0.7660   -1.0890 c3        1 MOL     -0.037413
    142 C44         6.0230    1.3460    0.0700 c         1 MOL      0.398562
    143 O21         6.4500    2.3090    0.6850 o         1 MOL     -0.543654
    144 C45         6.4520    1.3540   -2.3870 c3        1 MOL     -0.180027
    145 C46         6.5580    2.8560   -2.3980 c3        1 MOL      0.160695
    146 C47         6.0680    3.2780   -3.7640 c3        1 MOL     -0.161899
    147 C48         6.2540    4.8380   -3.9040 c3        1 MOL      0.065264
    148 N13         5.7940    5.3530   -5.2410 n4        1 MOL     -0.334334
    149 H67         6.1120   -1.0710   -1.9500 hn        1 MOL      0.171068
    150 H68         7.9300    1.0040   -0.8910 h1        1 MOL      0.134467
    151 H69         5.4320    1.0150   -2.5880 hc        1 MOL      0.050698
    152 H70         7.2020    1.0440   -3.1130 hc        1 MOL      0.050698
    153 H71         7.5260    3.2450   -2.0770 hc        1 MOL      0.007456
    154 H72         5.8870    3.2450   -1.6230 hc        1 MOL      0.007456
    155 H73         5.0420    2.9620   -3.9690 hc        1 MOL      0.060871
    156 H74         6.7430    2.8570   -4.5110 hc        1 MOL      0.060871
    157 H75         7.2930    5.1240   -3.7360 hx        1 MOL      0.085907
    158 H76         5.8030    5.3240   -3.0470 hx        1 MOL      0.085907
    159 H77         6.1090    4.8620   -6.0750 hn        1 MOL      0.302030
    160 H78         4.8180    5.1810   -5.4270 hn        1 MOL      0.302030
    161 H79         5.9000    6.3380   -5.3670 hn        1 MOL      0.302030
    162 N14         4.9450    0.7130    0.3450 n         1 MOL      0.052907
    163 C49         4.0370    0.9940    1.5080 c3        1 MOL     -0.000739
    164 C50         4.7430    0.6210    2.8460 c         1 MOL      0.456400
    165 O22         4.8550    1.4250    3.7470 o         1 MOL     -0.553042
    166 C51         2.6730    0.3290    1.2030 c3        1 MOL     -0.013023
    167 C52         2.0580    1.0490   -0.0350 c3        1 MOL      0.044151
    168 C53         0.6280    0.5320   -0.2880 c         1 MOL      0.714131
    169 O23         0.4050   -0.6880   -0.4230 o         1 MOL     -0.766196
    170 O24        -0.3110    1.3340   -0.5040 o         1 MOL     -0.766196
    171 H80         4.8110   -0.1810   -0.1100 hn        1 MOL     -0.173707
    172 H81         3.8930    2.0760    1.5200 h1        1 MOL      0.014564
    173 H82         1.9870    0.4870    2.0360 hc        1 MOL      0.036890
    174 H83         2.8460   -0.7250    1.0100 hc        1 MOL      0.036890
    175 H84         2.5980    0.9820   -0.9710 hc        1 MOL     -0.029631
    176 H85         1.9480    2.0920    0.2670 hc        1 MOL     -0.029631
    177 N15         5.1360   -0.6600    2.9590 n         1 MOL     -0.053141
    178 C54         5.9440   -1.2430    4.0570 c3        1 MOL     -0.352362
    179 H86         5.3990   -2.0710    4.5080 h1        1 MOL      0.130722
    180 H87         6.8920   -1.6050    3.6570 h1        1 MOL      0.130722
    181 H88         6.1350   -0.4800    4.8120 h1        1 MOL      0.130722
    182 H89         5.0590   -1.2360    2.1350 hn        1 MOL      0.161198
    183 Ca1        -1.9760   -0.5220   -1.4610 Ca        1 MOL      1.770097
    184 O25        -1.3500   -3.0100   -2.3670 oh        1 MOL     -0.860403
    185 H90        -2.0710   -3.6380   -2.4130 ho        1 MOL      0.407847
    186 H91        -0.9120   -3.0850   -3.2210 ho        1 MOL      0.407847
    187 O26        -0.5040   -0.6710   -3.9330 oh        1 MOL     -0.860403
    188 H92         0.4350   -0.6670   -4.1180 ho        1 MOL      0.407847
    189 H93        -0.9110   -0.3670   -4.7470 ho        1 MOL      0.407847
@<TRIPOS>BOND
     1    1    2 1   
     2    1    4 1   
     3    1    5 1   
     4    1    6 1   
     5    2    3 2   
     6    2    7 1   
     7    7    8 1   
     8    7   15 1   
     9    8    9 1   
    10    8   11 1   
    11    8   16 1   
    12    9   10 2   
    13    9   19 1   
    14   11   12 1   
    15   11   17 1   
    16   11   18 1   
    17   12   13 1   
    18   12   14 1   
    19   19   20 1   
    20   19   28 1   
    21   20   21 1   
    22   20   23 1   
    23   20   29 1   
    24   21   22 2   
    25   21   41 1   
    26   23   24 1   
    27   23   30 1   
    28   23   31 1   
    29   24   25 1   
    30   24   32 1   
    31   24   33 1   
    32   25   26 1   
    33   25   34 1   
    34   25   35 1   
    35   26   27 1   
    36   26   36 1   
    37   26   37 1   
    38   27   38 1   
    39   27   39 1   
    40   27   40 1   
    41   41   42 1   
    42   41   49 1   
    43   42   43 1   
    44   42   45 1   
    45   42   50 1   
    46   43   44 2   
    47   43   53 1   
    48   45   46 1   
    49   45   51 1   
    50   45   52 1   
    51   46   47 1   
    52   46   48 1   
    53   53   54 1   
    54   53   57 1   
    55   54   55 1   
    56   54   58 1   
    57   54   59 1   
    58   55   56 2   
    59   55   60 1   
    60   60   61 1   
    61   60   68 1   
    62   61   62 1   
    63   61   64 1   
    64   61   69 1   
    65   62   63 2   
    66   62   72 1   
    67   64   65 1   
    68   64   70 1   
    69   64   71 1   
    70   65   66 1   
    71   65   67 1   
    72   72   73 1   
    73   72   76 1   
    74   73   74 1   
    75   73   77 1   
    76   73   78 1   
    77   74   75 2   
    78   74   79 1   
    79   79   80 1   
    80   79   86 1   
    81   80   81 1   
    82   80   83 1   
    83   80   87 1   
    84   81   82 2   
    85   81   93 1   
    86   83   84 1   
    87   83   85 1   
    88   83   88 1   
    89   84   90 1   
    90   84   91 1   
    91   84   92 1   
    92   85   89 1   
    93   93   94 1   
    94   93  101 1   
    95   94   95 1   
    96   94   97 1   
    97   94  102 1   
    98   95   96 2   
    99   95  112 1   
   100   97   98 1   
   101   97   99 1   
   102   97  103 1   
   103   98  100 1   
   104   98  104 1   
   105   98  105 1   
   106   99  106 1   
   107   99  107 1   
   108   99  108 1   
   109  100  109 1   
   110  100  110 1   
   111  100  111 1   
   112  112  113 1   
   113  112  119 1   
   114  113  114 1   
   115  113  116 1   
   116  113  120 1   
   117  114  115 2   
   118  114  126 1   
   119  116  117 1   
   120  116  118 1   
   121  116  121 1   
   122  117  123 1   
   123  117  124 1   
   124  117  125 1   
   125  118  122 1   
   126  126  127 1   
   127  126  133 1   
   128  127  128 1   
   129  127  130 1   
   130  127  134 1   
   131  128  129 2   
   132  128  140 1   
   133  130  131 1   
   134  130  132 1   
   135  130  135 1   
   136  131  137 1   
   137  131  138 1   
   138  131  139 1   
   139  132  136 1   
   140  140  141 1   
   141  140  149 1   
   142  141  142 1   
   143  141  144 1   
   144  141  150 1   
   145  142  143 2   
   146  142  162 1   
   147  144  145 1   
   148  144  151 1   
   149  144  152 1   
   150  145  146 1   
   151  145  153 1   
   152  145  154 1   
   153  146  147 1   
   154  146  155 1   
   155  146  156 1   
   156  147  148 1   
   157  147  157 1   
   158  147  158 1   
   159  148  159 1   
   160  148  160 1   
   161  148  161 1   
   162  162  163 1   
   163  162  171 1   
   164  163  164 1   
   165  163  166 1   
   166  163  172 1   
   167  164  165 2   
   168  164  177 1   
   169  166  167 1   
   170  166  173 1   
   171  166  174 1   
   172  167  168 1   
   173  167  175 1   
   174  167  176 1   
   175  168  169 1   
   176  168  170 1   
   177  177  178 1   
   178  177  182 1   
   179  178  179 1   
   180  178  180 1   
   181  178  181 1   
   182  184  185 1   
   183  184  186 1   
   184  187  188 1   
   185  187  189 1   
@<TRIPOS>SUBSTRUCTURE
     1 MOL         1 TEMP              0 ****  ****    0 ROOT
