@<TRIPOS>MOLECULE
MOL
  189   185     1     0     0
SMALL
resp


@<TRIPOS>ATOM
      1 C1          0.3450    2.6740    4.8000 c3        1 MOL     -0.531370
      2 C2         -0.4080    2.5660    3.4870 c         1 MOL      0.573587
      3 O1          0.1490    2.9670    2.4830 o         1 MOL     -0.536584
      4 H1          0.0510    1.8540    5.4560 hc        1 MOL      0.146677
      5 H2          1.4170    2.6190    4.6100 hc        1 MOL      0.146677
      6 H3          0.1090    3.6240    5.2780 hc        1 MOL      0.146677
      7 N1         -1.6700    2.0430    3.5340 n         1 MOL     -0.520419
      8 C3         -2.5150    1.8020    2.3490 c3        1 MOL      0.109677
      9 C4         -3.0390    3.0780    1.7380 c         1 MOL      0.491372
     10 O2         -4.2250    3.2870    1.7800 o         1 MOL     -0.457589
     11 C5         -3.5260    0.6980    2.6840 c3        1 MOL     -0.108995
     12 C6         -4.4330    0.2910    1.5030 c         1 MOL      0.621856
     13 O3         -3.9190    0.3140    0.3530 o         1 MOL     -0.668018
     14 O4         -5.6290   -0.0930    1.6640 o         1 MOL     -0.668018
     15 H4         -1.9760    1.7590    4.4580 hn        1 MOL      0.317024
     16 H5         -1.8630    1.2980    1.6390 h1        1 MOL      0.034556
     17 H6         -4.1380    1.0010    3.5400 hc        1 MOL      0.032217
     18 H7         -3.0120   -0.2070    3.0120 hc        1 MOL      0.032217
     19 N2         -2.2280    3.9010    1.1510 n         1 MOL     -0.475470
     20 C7         -2.5980    5.1500    0.5040 c3        1 MOL     -0.011465
     21 C8         -3.4880    5.0300   -0.6960 c         1 MOL      0.516229
     22 O5         -4.5030    5.7580   -0.7550 o         1 MOL     -0.549856
     23 C9         -1.3570    6.0640    0.1770 c3        1 MOL     -0.120763
     24 C10        -0.8190    6.5080    1.6050 c3        1 MOL      0.211407
     25 C11         0.2730    7.5720    1.4520 c3        1 MOL     -0.057673
     26 C12         0.6820    7.9520    2.9140 c3        1 MOL      0.057353
     27 N3          1.6420    7.0050    3.5250 n4        1 MOL     -0.602336
     28 H8         -1.2400    3.7620    1.3300 hn        1 MOL      0.374132
     29 H9         -3.2680    5.5440    1.2690 h1        1 MOL      0.087053
     30 H10        -1.6770    6.8810   -0.4660 hc        1 MOL      0.049834
     31 H11        -0.5850    5.4650   -0.2960 hc        1 MOL      0.049834
     32 H12        -0.3450    5.6330    2.0670 hc        1 MOL     -0.042585
     33 H13        -1.6660    6.9110    2.1480 hc        1 MOL     -0.042585
     34 H14        -0.0690    8.4690    0.9500 hc        1 MOL      0.039290
     35 H15         1.1400    7.1790    0.9110 hc        1 MOL      0.039290
     36 H16        -0.1960    8.0590    3.5450 hx        1 MOL      0.080918
     37 H17         1.1140    8.9560    2.9260 hx        1 MOL      0.080918
     38 H18         2.4590    7.4680    3.8790 hn        1 MOL      0.399769
     39 H19         1.0820    6.4880    4.1890 hn        1 MOL      0.399769
     40 H20         1.9890    6.4060    2.7940 hn        1 MOL      0.399769
     41 N4         -3.1630    4.1260   -1.6430 n         1 MOL     -0.390930
     42 C13        -4.0610    3.8290   -2.7370 c3        1 MOL      0.078175
     43 C14        -5.3170    3.0150   -2.4070 c         1 MOL      0.293281
     44 O6         -6.1970    2.8360   -3.2510 o         1 MOL     -0.517012
     45 C15        -3.2360    3.3010   -3.9360 c3        1 MOL     -0.367238
     46 C16        -2.3080    2.1810   -3.6330 c         1 MOL      0.854472
     47 O7         -2.3830    1.4980   -2.5800 o         1 MOL     -0.729981
     48 O8         -1.3730    1.9260   -4.4140 o         1 MOL     -0.729981
     49 H21        -2.2570    3.6850   -1.6620 hn        1 MOL      0.282313
     50 H22        -4.3910    4.7760   -3.1500 h1        1 MOL      0.101300
     51 H23        -2.6550    4.1560   -4.2590 hc        1 MOL      0.103487
     52 H24        -3.8890    2.9480   -4.7400 hc        1 MOL      0.103487
     53 N5         -5.5250    2.5500   -1.1590 n         1 MOL      0.128727
     54 C17        -6.8180    2.0750   -0.5100 c3        1 MOL     -0.098558
     55 C18        -7.3660    0.8660   -1.2160 c         1 MOL      0.424762
     56 O9         -8.5690    0.7710   -1.4700 o         1 MOL     -0.565585
     57 H25        -4.8260    2.6960   -0.4510 hn        1 MOL     -0.029762
     58 H26        -7.4550    2.9650   -0.4840 h1        1 MOL      0.092389
     59 H27        -6.6210    1.8140    0.5270 h1        1 MOL      0.092389
     60 N6         -6.5320   -0.1270   -1.5890 n         1 MOL     -0.083874
     61 C19        -6.8270   -1.4180   -2.1090 c3        1 MOL     -0.090530
     62 C20        -6.9180   -2.4640   -0.9950 c         1 MOL      0.460473
     63 O10        -7.0870   -3.6350   -1.2290 o         1 MOL     -0.536372
     64 C21        -5.8700   -1.9470   -3.1690 c3        1 MOL     -0.021508
     65 C22        -4.4170   -1.8050   -2.7820 c         1 MOL      0.631588
     66 O11        -3.4380   -1.9040   -3.5790 o         1 MOL     -0.657878
     67 O12        -4.0850   -1.7670   -1.5850 o         1 MOL     -0.657878
     68 H28        -5.5610   -0.0280   -1.3170 hn        1 MOL      0.018046
     69 H29        -7.7850   -1.4520   -2.6340 h1        1 MOL      0.118647
     70 H30        -6.0040   -1.4420   -4.1180 hc        1 MOL      0.039327
     71 H31        -6.2250   -2.9400   -3.4490 hc        1 MOL      0.039327
     72 N7         -6.8170   -2.0720    0.2580 n         1 MOL     -0.383337
     73 C23        -7.0100   -3.0500    1.3450 c3        1 MOL      0.089538
     74 C24        -5.8430   -3.9990    1.5330 c         1 MOL      0.430632
     75 O13        -5.8950   -5.0870    2.0760 o         1 MOL     -0.547029
     76 H32        -6.5720   -1.1070    0.3960 hn        1 MOL      0.311477
     77 H33        -7.9210   -3.6620    1.2980 h1        1 MOL      0.047129
     78 H34        -7.2250   -2.6410    2.3400 h1        1 MOL      0.047129
     79 N8         -4.6620   -3.5350    1.0690 n         1 MOL     -0.269025
     80 C25        -3.3800   -4.2990    1.0570 c3        1 MOL     -0.088954
     81 C26        -2.1540   -3.3450    1.2500 c         1 MOL      0.615386
     82 O14        -2.3030   -2.2170    0.8420 o         1 MOL     -0.593750
     83 C27        -3.2190   -5.1420   -0.1840 c3        1 MOL      0.574153
     84 C28        -3.8030   -6.5860    0.0070 c3        1 MOL     -0.533107
     85 O15        -3.7660   -4.5080   -1.3610 oh        1 MOL     -0.635843
     86 H35        -4.6020   -2.5560    0.8040 hn        1 MOL      0.245651
     87 H36        -3.2870   -4.9200    1.9470 h1        1 MOL      0.053735
     88 H37        -2.1500   -5.3080   -0.2970 h1        1 MOL     -0.072118
     89 H38        -3.9350   -3.6000   -1.1230 ho        1 MOL      0.411076
     90 H39        -3.3910   -7.2700   -0.7420 hc        1 MOL      0.128799
     91 H40        -3.5880   -6.9730    1.0070 hc        1 MOL      0.128799
     92 H41        -4.8820   -6.5430   -0.1000 hc        1 MOL      0.128799
     93 N9         -1.0270   -3.8180    1.8560 n         1 MOL     -0.586167
     94 C29         0.2460   -3.0790    1.9410 c3        1 MOL      0.033479
     95 C30         1.3620   -3.8410    1.2420 c         1 MOL      0.383575
     96 O16         1.5550   -5.1100    1.2190 o         1 MOL     -0.536167
     97 C31         0.6210   -2.8460    3.4310 c3        1 MOL      0.128597
     98 C32        -0.4510   -1.8710    4.0610 c3        1 MOL     -0.022238
     99 C33         2.0790   -2.4330    3.6840 c3        1 MOL     -0.275496
    100 C34        -0.3720   -1.9700    5.5690 c3        1 MOL     -0.120318
    101 H42        -1.0130   -4.7970    2.0750 hn        1 MOL      0.306933
    102 H43         0.1040   -2.0810    1.5260 h1        1 MOL      0.012081
    103 H44         0.4640   -3.7370    4.0470 hc        1 MOL      0.028378
    104 H45        -1.4510   -1.9700    3.6260 hc        1 MOL      0.047394
    105 H46        -0.2460   -0.8270    3.8340 hc        1 MOL      0.047394
    106 H47         2.7760   -3.2270    3.4220 hc        1 MOL      0.045875
    107 H48         2.1990   -1.6480    2.9410 hc        1 MOL      0.045875
    108 H49         2.2200   -2.1720    4.7300 hc        1 MOL      0.045875
    109 H50         0.5210   -1.6580    6.1090 hc        1 MOL      0.028868
    110 H51        -1.1570   -1.2870    5.8710 hc        1 MOL      0.028868
    111 H52        -0.5890   -3.0080    5.8270 hc        1 MOL      0.028868
    112 N10         2.1870   -3.0160    0.5760 n         1 MOL      0.002218
    113 C35         3.4110   -3.4930   -0.1580 c3        1 MOL     -0.196869
    114 C36         4.7690   -3.0890    0.4210 c         1 MOL      0.428200
    115 O17         4.8400   -2.2490    1.3310 o         1 MOL     -0.378064
    116 C37         3.3490   -2.8200   -1.5650 c3        1 MOL      0.167846
    117 C38         2.1250   -3.3520   -2.4080 c3        1 MOL     -0.344168
    118 O18         3.1500   -1.4280   -1.5550 oh        1 MOL     -0.511257
    119 H53         1.8460   -2.0740    0.4950 hn        1 MOL      0.365064
    120 H54         3.2580   -4.5720   -0.2360 h1        1 MOL      0.111272
    121 H55         4.2500   -3.0670   -2.1240 h1        1 MOL      0.072249
    122 H56         2.2340   -1.3270   -1.2700 ho        1 MOL      0.330950
    123 H57         1.2800   -3.1570   -1.7410 hc        1 MOL      0.100944
    124 H58         2.1300   -2.8190   -3.3540 hc        1 MOL      0.100944
    125 H59         2.2590   -4.4220   -2.5890 hc        1 MOL      0.100944
    126 N11         5.8210   -3.6030   -0.2670 n         1 MOL     -0.391216
    127 C39         7.2350   -3.2480   -0.0550 c3        1 MOL     -0.021384
    128 C40         7.5400   -1.7740   -0.1360 c         1 MOL      0.374043
    129 O19         8.1500   -1.2980    0.7840 o         1 MOL     -0.503676
    130 C41         8.2040   -3.9850   -0.9920 c3        1 MOL      0.145243
    131 C42         8.0990   -5.4140   -0.7820 c3        1 MOL     -0.263673
    132 O20         7.7320   -3.8290   -2.3420 oh        1 MOL     -0.637860
    133 H60         5.6000   -4.1390   -1.1030 hn        1 MOL      0.299753
    134 H61         7.5010   -3.6190    0.9300 h1        1 MOL      0.133537
    135 H62         9.2090   -3.6040   -0.8410 h1        1 MOL      0.088971
    136 H63         8.3720   -4.2920   -2.9060 ho        1 MOL      0.422138
    137 H64         8.4850   -5.6000    0.2260 hc        1 MOL      0.082727
    138 H65         7.1250   -5.8920   -0.8740 hc        1 MOL      0.082727
    139 H66         8.7810   -5.9290   -1.4720 hc        1 MOL      0.082727
    140 N12         6.9860   -1.0570   -1.1100 n         1 MOL     -0.124502
    141 C43         7.2740    0.3890   -1.2160 c3        1 MOL     -0.095874
    142 C44         6.4620    1.2180   -0.2880 c         1 MOL      0.412524
    143 O21         6.8560    2.3220    0.0800 o         1 MOL     -0.522065
    144 C45         7.0060    0.6470   -2.7030 c3        1 MOL      0.008197
    145 C46         7.1340    2.0520   -3.2480 c3        1 MOL     -0.002812
    146 C47         8.6170    2.5450   -3.2760 c3        1 MOL     -0.014534
    147 C48         8.7860    3.9000   -3.9580 c3        1 MOL      0.140608
    148 N13        10.1010    4.4670   -3.6310 n4        1 MOL     -0.331967
    149 H67         6.6510   -1.5080   -1.9510 hn        1 MOL      0.190199
    150 H68         8.3400    0.5860   -1.0970 h1        1 MOL      0.088168
    151 H69         5.9570    0.4560   -2.9310 hc        1 MOL      0.019877
    152 H70         7.6570   -0.0300   -3.2550 hc        1 MOL      0.019877
    153 H71         6.5110    2.7000   -2.6280 hc        1 MOL      0.025135
    154 H72         6.7860    2.1000   -4.2730 hc        1 MOL      0.025135
    155 H73         9.2390    1.8490   -3.8430 hc        1 MOL      0.016988
    156 H74         8.9790    2.5980   -2.2470 hc        1 MOL      0.016988
    157 H75         8.0460    4.6210   -3.6170 hx        1 MOL      0.045946
    158 H76         8.6760    3.8790   -5.0390 hx        1 MOL      0.045946
    159 H77        10.2180    4.4580   -2.6240 hn        1 MOL      0.287494
    160 H78        10.7730    3.9290   -4.1530 hn        1 MOL      0.287494
    161 H79        10.2220    5.3960   -4.0210 hn        1 MOL      0.287494
    162 N14         5.2300    0.7730    0.0140 n         1 MOL      0.023703
    163 C49         4.4610    1.4410    1.0230 c3        1 MOL     -0.265902
    164 C50         5.1500    1.2890    2.4270 c         1 MOL      0.486728
    165 O22         5.0620    2.2700    3.2060 o         1 MOL     -0.566814
    166 C51         3.0610    0.7910    1.1250 c3        1 MOL      0.079760
    167 C52         2.1180    1.4010    0.0330 c3        1 MOL     -0.170491
    168 C53         0.8550    0.7060   -0.0760 c         1 MOL      0.979158
    169 O23         0.8480   -0.5290   -0.2890 o         1 MOL     -0.873656
    170 O24        -0.2000    1.3430   -0.2200 o         1 MOL     -0.873656
    171 H80         4.8830   -0.1230   -0.3130 hn        1 MOL      0.060692
    172 H81         4.2480    2.5000    0.8750 h1        1 MOL      0.113180
    173 H82         2.5180    1.0730    2.0230 hc        1 MOL     -0.001609
    174 H83         3.1130   -0.2870    0.9680 hc        1 MOL     -0.001609
    175 H84         2.6210    1.4190   -0.9370 hc        1 MOL      0.020407
    176 H85         1.9490    2.4310    0.3380 hc        1 MOL      0.020407
    177 N15         5.6420    0.0540    2.7290 n         1 MOL     -0.159765
    178 C54         6.4840   -0.0460    3.8960 c3        1 MOL     -0.345290
    179 H86         6.0620   -0.7770    4.5860 h1        1 MOL      0.127320
    180 H87         7.4830   -0.3640    3.5980 h1        1 MOL      0.127320
    181 H88         6.5430    0.9250    4.3860 h1        1 MOL      0.127320
    182 H89         5.4690   -0.7190    2.0950 hn        1 MOL      0.198343
    183 Ca1        -1.8540   -0.4460   -1.0700 Ca        1 MOL      1.762675
    184 O25         0.0360   -0.0120   -3.1730 oh        1 MOL     -0.855522
    185 H90         0.9440    0.2940   -3.1790 ho        1 MOL      0.395472
    186 H91        -0.4650    0.7100   -3.5670 ho        1 MOL      0.395472
    187 O26        -1.3930   -2.8870   -2.0300 oh        1 MOL     -0.855522
    188 H92        -2.1900   -2.7530   -2.5330 ho        1 MOL      0.395472
    189 H93        -0.8010   -3.3260   -2.6430 ho        1 MOL      0.395472
@<TRIPOS>BOND
     1    1    2 1   
     2    1    4 1   
     3    1    5 1   
     4    1    6 1   
     5    2    3 2   
     6    2    7 1   
     7    7    8 1   
     8    7   15 1   
     9    8    9 1   
    10    8   11 1   
    11    8   16 1   
    12    9   10 2   
    13    9   19 1   
    14   11   12 1   
    15   11   17 1   
    16   11   18 1   
    17   12   13 1   
    18   12   14 1   
    19   19   20 1   
    20   19   28 1   
    21   20   21 1   
    22   20   23 1   
    23   20   29 1   
    24   21   22 2   
    25   21   41 1   
    26   23   24 1   
    27   23   30 1   
    28   23   31 1   
    29   24   25 1   
    30   24   32 1   
    31   24   33 1   
    32   25   26 1   
    33   25   34 1   
    34   25   35 1   
    35   26   27 1   
    36   26   36 1   
    37   26   37 1   
    38   27   38 1   
    39   27   39 1   
    40   27   40 1   
    41   41   42 1   
    42   41   49 1   
    43   42   43 1   
    44   42   45 1   
    45   42   50 1   
    46   43   44 2   
    47   43   53 1   
    48   45   46 1   
    49   45   51 1   
    50   45   52 1   
    51   46   47 1   
    52   46   48 1   
    53   53   54 1   
    54   53   57 1   
    55   54   55 1   
    56   54   58 1   
    57   54   59 1   
    58   55   56 2   
    59   55   60 1   
    60   60   61 1   
    61   60   68 1   
    62   61   62 1   
    63   61   64 1   
    64   61   69 1   
    65   62   63 2   
    66   62   72 1   
    67   64   65 1   
    68   64   70 1   
    69   64   71 1   
    70   65   66 1   
    71   65   67 1   
    72   72   73 1   
    73   72   76 1   
    74   73   74 1   
    75   73   77 1   
    76   73   78 1   
    77   74   75 2   
    78   74   79 1   
    79   79   80 1   
    80   79   86 1   
    81   80   81 1   
    82   80   83 1   
    83   80   87 1   
    84   81   82 2   
    85   81   93 1   
    86   83   84 1   
    87   83   85 1   
    88   83   88 1   
    89   84   90 1   
    90   84   91 1   
    91   84   92 1   
    92   85   89 1   
    93   93   94 1   
    94   93  101 1   
    95   94   95 1   
    96   94   97 1   
    97   94  102 1   
    98   95   96 2   
    99   95  112 1   
   100   97   98 1   
   101   97   99 1   
   102   97  103 1   
   103   98  100 1   
   104   98  104 1   
   105   98  105 1   
   106   99  106 1   
   107   99  107 1   
   108   99  108 1   
   109  100  109 1   
   110  100  110 1   
   111  100  111 1   
   112  112  113 1   
   113  112  119 1   
   114  113  114 1   
   115  113  116 1   
   116  113  120 1   
   117  114  115 2   
   118  114  126 1   
   119  116  117 1   
   120  116  118 1   
   121  116  121 1   
   122  117  123 1   
   123  117  124 1   
   124  117  125 1   
   125  118  122 1   
   126  126  127 1   
   127  126  133 1   
   128  127  128 1   
   129  127  130 1   
   130  127  134 1   
   131  128  129 2   
   132  128  140 1   
   133  130  131 1   
   134  130  132 1   
   135  130  135 1   
   136  131  137 1   
   137  131  138 1   
   138  131  139 1   
   139  132  136 1   
   140  140  141 1   
   141  140  149 1   
   142  141  142 1   
   143  141  144 1   
   144  141  150 1   
   145  142  143 2   
   146  142  162 1   
   147  144  145 1   
   148  144  151 1   
   149  144  152 1   
   150  145  146 1   
   151  145  153 1   
   152  145  154 1   
   153  146  147 1   
   154  146  155 1   
   155  146  156 1   
   156  147  148 1   
   157  147  157 1   
   158  147  158 1   
   159  148  159 1   
   160  148  160 1   
   161  148  161 1   
   162  162  163 1   
   163  162  171 1   
   164  163  164 1   
   165  163  166 1   
   166  163  172 1   
   167  164  165 2   
   168  164  177 1   
   169  166  167 1   
   170  166  173 1   
   171  166  174 1   
   172  167  168 1   
   173  167  175 1   
   174  167  176 1   
   175  168  169 1   
   176  168  170 1   
   177  177  178 1   
   178  177  182 1   
   179  178  179 1   
   180  178  180 1   
   181  178  181 1   
   182  184  185 1   
   183  184  186 1   
   184  187  188 1   
   185  187  189 1   
@<TRIPOS>SUBSTRUCTURE
     1 MOL         1 TEMP              0 ****  ****    0 ROOT
