@<TRIPOS>MOLECULE
MOL
  175   173     1     0     0
SMALL
resp


@<TRIPOS>ATOM
      1 C1          0.4010    3.5120    5.6650 c3        1 MOL     -0.414099
      2 C2         -0.2740    3.5750    4.2390 c         1 MOL      0.769549
      3 O1          0.3800    3.9360    3.2980 o         1 MOL     -0.538945
      4 H1          0.1980    2.5410    6.1200 hc        1 MOL      0.098848
      5 H2          1.4770    3.6470    5.5650 hc        1 MOL      0.098848
      6 H3         -0.0080    4.3010    6.2970 hc        1 MOL      0.098848
      7 N1         -1.5520    3.3840    4.1030 n         1 MOL     -0.791938
      8 C3         -2.3000    3.2780    2.8740 c3        1 MOL      0.554218
      9 C4         -2.4060    4.6110    2.0630 c         1 MOL      0.469486
     10 O2         -2.3650    5.7410    2.5730 o         1 MOL     -0.557235
     11 C5         -3.6830    2.5460    2.9660 c3        1 MOL     -0.614523
     12 C6         -4.4390    2.3850    1.6170 c         1 MOL      0.920725
     13 O3         -5.6770    2.6700    1.5580 o         1 MOL     -0.697285
     14 O4         -3.8290    1.9350    0.6720 o         1 MOL     -0.697285
     15 H4         -2.0910    3.4560    4.9520 hn        1 MOL      0.336002
     16 H5         -1.8430    2.5820    2.1640 h1        1 MOL     -0.038476
     17 H6         -4.2610    3.1440    3.6760 hc        1 MOL      0.099575
     18 H7         -3.4190    1.5820    3.4000 hc        1 MOL      0.099575
     19 N2         -2.4820    4.3330    0.7500 n         1 MOL     -0.562993
     20 C7         -2.3900    5.4170   -0.2820 c3        1 MOL      0.425292
     21 C8         -3.2310    5.1310   -1.5250 c         1 MOL      0.283515
     22 O5         -3.2010    5.9030   -2.4640 o         1 MOL     -0.542641
     23 C9         -0.9520    5.7190   -0.5500 c3        1 MOL     -0.244931
     24 H8         -2.3110    3.3890    0.4240 hn        1 MOL      0.343250
     25 H9         -2.7310    6.3630    0.1370 h1        1 MOL     -0.005044
     26 H10        -0.4530    4.9220   -1.1040 hc        1 MOL      0.055934
     27 H11        -0.8560    6.6680   -1.0710 hc        1 MOL      0.055934
     28 H12        -0.4990    5.8600    0.4390 hc        1 MOL      0.055934
     29 N3         -3.7960    3.8970   -1.6650 n         1 MOL     -0.097538
     30 C10        -4.5460    3.4080   -2.8740 c3        1 MOL      0.068028
     31 C11        -5.8650    2.6850   -2.5380 c         1 MOL      0.374289
     32 O6         -6.6440    2.5500   -3.4730 o         1 MOL     -0.549425
     33 C12        -3.6560    2.4510   -3.6410 c3        1 MOL     -0.127297
     34 C13        -3.0990    1.2970   -2.8090 c         1 MOL      0.746414
     35 O7         -3.7900    0.4340   -2.1730 o         1 MOL     -0.718838
     36 O8         -1.8530    1.2210   -2.7210 o         1 MOL     -0.718838
     37 H13        -3.8040    3.4020   -0.7850 hn        1 MOL     -0.045913
     38 H14        -4.9150    4.2490   -3.4730 h1        1 MOL      0.073509
     39 H15        -2.8100    2.9910   -4.0660 hc        1 MOL      0.037068
     40 H16        -4.1960    2.1250   -4.5200 hc        1 MOL      0.037068
     41 N4         -6.1050    2.0950   -1.3440 n         1 MOL     -0.147924
     42 C14        -7.3320    1.3440   -0.9490 c3        1 MOL     -0.260299
     43 C15        -7.4590   -0.1250   -1.4540 c         1 MOL      0.497289
     44 O9         -8.5730   -0.6970   -1.2590 o         1 MOL     -0.598494
     45 H17        -5.4190    2.1860   -0.6000 hn        1 MOL      0.165206
     46 H18        -8.2620    1.8420   -1.2030 h1        1 MOL      0.132119
     47 H19        -7.2560    1.2340    0.1420 h1        1 MOL      0.132119
     48 N5         -6.3380   -0.7520   -1.9330 n         1 MOL     -0.204955
     49 C16        -6.2190   -2.1830   -2.2690 c3        1 MOL     -0.126290
     50 C17        -6.2550   -3.1980   -1.0830 c         1 MOL      0.604058
     51 O10        -6.4920   -4.3540   -1.3280 o         1 MOL     -0.564441
     52 C18        -5.0380   -2.4270   -3.2000 c3        1 MOL     -0.074374
     53 C19        -3.7370   -2.2390   -2.4590 c         1 MOL      0.754929
     54 N6         -2.6440   -2.2230   -3.2220 n         1 MOL     -0.747002
     55 O11        -3.5970   -2.1090   -1.2590 o         1 MOL     -0.645790
     56 H20        -5.4910   -0.2190   -2.0170 hn        1 MOL      0.171489
     57 H21        -7.1620   -2.4010   -2.7780 h1        1 MOL      0.095060
     58 H22        -5.0330   -1.8210   -4.1100 hc        1 MOL      0.034753
     59 H23        -5.0350   -3.4800   -3.5000 hc        1 MOL      0.034753
     60 H24        -2.5880   -2.3920   -4.2150 hn        1 MOL      0.333788
     61 H25        -1.7430   -2.0010   -2.8110 hn        1 MOL      0.333788
     62 N7         -6.2720   -2.7210    0.1360 n         1 MOL     -0.384555
     63 C20        -6.2560   -3.6050    1.3320 c3        1 MOL     -0.022473
     64 C21        -4.9360   -4.2740    1.7510 c         1 MOL      0.412734
     65 O12        -4.9970   -5.2500    2.4740 o         1 MOL     -0.549133
     66 H26        -6.2860   -1.7090    0.2150 hn        1 MOL      0.314097
     67 H27        -7.0470   -4.3530    1.2710 h1        1 MOL      0.063805
     68 H28        -6.5900   -2.9350    2.1300 h1        1 MOL      0.063805
     69 N8         -3.7860   -3.8080    1.2880 n         1 MOL     -0.034867
     70 C22        -2.4370   -4.4600    1.4720 c3        1 MOL     -0.363122
     71 C23        -1.3330   -3.4040    1.4210 c         1 MOL      0.606828
     72 O13        -1.5090   -2.4070    0.7080 o         1 MOL     -0.389813
     73 C24        -2.0890   -5.4270    0.3020 c3        1 MOL      0.607061
     74 C25        -2.9830   -6.6920    0.2260 c3        1 MOL     -0.624884
     75 O14        -2.2460   -4.7440   -0.8920 oh        1 MOL     -0.589714
     76 H29        -3.7910   -2.9980    0.6720 hn        1 MOL      0.072650
     77 H30        -2.3110   -5.0480    2.3870 h1        1 MOL      0.118536
     78 H31        -1.0310   -5.6790    0.3650 h1        1 MOL     -0.043938
     79 H32        -2.2990   -3.7890   -0.7670 ho        1 MOL      0.291380
     80 H33        -2.6080   -7.3900   -0.5210 hc        1 MOL      0.158502
     81 H34        -2.9280   -7.0750    1.2430 hc        1 MOL      0.158502
     82 H35        -3.9980   -6.4140   -0.0300 hc        1 MOL      0.158502
     83 N9         -0.1880   -3.6410    2.1190 n         1 MOL     -0.644750
     84 C26         0.9790   -2.7140    2.0420 c3        1 MOL     -0.128212
     85 C27         1.6670   -2.9980    0.7180 c         1 MOL      0.724289
     86 O15         2.1510   -4.0930    0.4850 o         1 MOL     -0.621654
     87 C28         1.9330   -2.7740    3.2350 c3        1 MOL      0.312862
     88 C29         1.2170   -2.9240    4.6050 c3        1 MOL      0.215182
     89 C30         3.0340   -1.7130    3.2010 c3        1 MOL     -0.483022
     90 C31         2.2640   -3.2900    5.6490 c3        1 MOL     -0.371277
     91 H36        -0.1740   -4.4150    2.7690 hn        1 MOL      0.352566
     92 H37         0.6070   -1.6840    2.0750 h1        1 MOL      0.061242
     93 H38         2.4400   -3.7390    3.2060 hc        1 MOL     -0.037234
     94 H39         0.5090   -3.7430    4.4930 hc        1 MOL     -0.047432
     95 H40         0.7860   -1.9770    4.9300 hc        1 MOL     -0.047432
     96 H41         2.6770   -0.7870    3.6650 hc        1 MOL      0.105458
     97 H42         3.9650   -2.0720    3.6290 hc        1 MOL      0.105458
     98 H43         3.2660   -1.3300    2.2010 hc        1 MOL      0.105458
     99 H44         2.9980   -4.0220    5.3100 hc        1 MOL      0.080810
    100 H45         2.7270   -2.3210    5.8490 hc        1 MOL      0.080810
    101 H46         1.6580   -3.6080    6.4950 hc        1 MOL      0.080810
    102 N10         1.7300   -2.0070   -0.1300 n         1 MOL     -0.211912
    103 C32         2.5520   -1.9240   -1.2890 c3        1 MOL      0.176845
    104 C33         4.0910   -1.5510   -0.9230 c         1 MOL      0.227250
    105 O16         4.3570   -0.9180    0.0820 o         1 MOL     -0.183878
    106 C34         1.9130   -0.9070   -2.2050 c3        1 MOL     -0.354017
    107 C35         0.4410   -1.2590   -2.5780 c         1 MOL      0.748587
    108 O17        -0.4630   -1.0940   -1.7310 o         1 MOL     -0.657898
    109 O18         0.2150   -1.6800   -3.7190 o         1 MOL     -0.657898
    110 H47         1.3030   -1.1390    0.1570 hn        1 MOL     -0.115007
    111 H48         2.5220   -2.9240   -1.7120 h1        1 MOL      0.047632
    112 H49         2.5250   -0.9170   -3.1070 hc        1 MOL      0.108661
    113 H50         1.8600    0.1070   -1.7940 hc        1 MOL      0.108661
    114 N11         5.0990   -1.8270   -1.8190 n         1 MOL     -0.484425
    115 C36         6.4580   -1.4400   -1.5360 c3        1 MOL      0.259099
    116 C37         6.7090    0.0530   -1.2470 c         1 MOL      0.398185
    117 O19         7.3020    0.3250   -0.2650 o         1 MOL     -0.487609
    118 C38         7.4110   -1.7170   -2.7080 c3        1 MOL     -0.185100
    119 C39         8.8630   -1.5590   -2.3280 ca        1 MOL      0.084347
    120 C40         9.5080   -2.4470   -1.3970 ca        1 MOL     -0.172747
    121 C41         9.5840   -0.5430   -2.9580 ca        1 MOL     -0.172747
    122 C42        10.8520   -2.2540   -1.0620 ca        1 MOL     -0.098330
    123 C43        10.9590   -0.4270   -2.5800 ca        1 MOL     -0.098330
    124 C44        11.5670   -1.2110   -1.6040 ca        1 MOL     -0.106019
    125 H51         4.9030   -2.3910   -2.6370 hn        1 MOL      0.309790
    126 H52         6.8770   -1.9480   -0.6730 h1        1 MOL      0.041976
    127 H53         7.1650   -1.1570   -3.6170 hc        1 MOL      0.050229
    128 H54         7.3980   -2.7710   -2.9740 hc        1 MOL      0.050229
    129 H55         8.9750   -3.2670   -0.9460 ha        1 MOL      0.130366
    130 H56         9.1930    0.0110   -3.7980 ha        1 MOL      0.130366
    131 H57        11.2950   -3.0270   -0.4560 ha        1 MOL      0.099056
    132 H58        11.5020    0.3460   -3.0940 ha        1 MOL      0.099056
    133 H59        12.6170   -1.1670   -1.3200 ha        1 MOL      0.098540
    134 N12         6.0510    1.0350   -1.8960 n         1 MOL     -0.081854
    135 C45         6.1810    2.4500   -1.4910 c3        1 MOL     -0.087485
    136 C46         5.5790    2.8100   -0.1620 c         1 MOL      0.338445
    137 O20         5.7820    3.9210    0.3080 o         1 MOL     -0.523174
    138 C47         5.4670    3.1950   -2.6310 c3        1 MOL     -0.003535
    139 C48         5.3860    2.2960   -3.7810 c3        1 MOL      0.030045
    140 C49         5.2100    0.9620   -3.0410 c3        1 MOL     -0.082097
    141 H60         7.2320    2.7260   -1.5370 h1        1 MOL      0.115236
    142 H61         4.4200    3.4310   -2.4390 hc        1 MOL      0.038958
    143 H62         5.9620    4.1360   -2.8850 hc        1 MOL      0.038958
    144 H63         4.5770    2.5010   -4.4810 hc        1 MOL      0.000443
    145 H64         6.3610    2.3180   -4.2860 hc        1 MOL      0.000443
    146 H65         4.1470    0.9340   -2.8030 h1        1 MOL      0.063062
    147 H66         5.4250    0.1500   -3.7350 h1        1 MOL      0.063062
    148 N13         4.7310    1.9380    0.3960 n         1 MOL      0.042814
    149 C50         4.0950    2.0670    1.7210 c3        1 MOL      0.007537
    150 C51         4.8550    1.4310    2.9060 c         1 MOL      0.410182
    151 O21         4.8250    1.9230    4.0340 o         1 MOL     -0.545833
    152 C52         2.6570    1.5410    1.6870 c3        1 MOL     -0.069773
    153 C53         1.7250    2.3520    0.6860 c3        1 MOL     -0.148882
    154 C54         0.2870    1.7370    0.6580 c         1 MOL      0.779960
    155 O22         0.0900    0.5850    1.0730 o         1 MOL     -0.738962
    156 O23        -0.6840    2.2810    0.1480 o         1 MOL     -0.738962
    157 H67         4.8480    0.9970    0.0470 hn        1 MOL     -0.150715
    158 H68         4.1580    3.1400    1.8880 h1        1 MOL      0.075572
    159 H69         2.3180    1.6300    2.7210 hc        1 MOL      0.068228
    160 H70         2.7250    0.5250    1.3080 hc        1 MOL      0.068228
    161 H71         2.2130    2.1990   -0.2820 hc        1 MOL      0.066693
    162 H72         1.7930    3.3950    0.9950 hc        1 MOL      0.066693
    163 N14         5.4110    0.2590    2.6390 n         1 MOL     -0.125805
    164 C55         6.3870   -0.4680    3.5090 c3        1 MOL     -0.100092
    165 H73         5.9220   -1.3760    3.8940 h1        1 MOL      0.058676
    166 H74         7.2680   -0.7310    2.9250 h1        1 MOL      0.058676
    167 H75         6.6790    0.1720    4.3420 h1        1 MOL      0.058676
    168 H76         5.2220   -0.1770    1.7390 hn        1 MOL      0.147441
    169 Ca1        -2.0980    0.1130   -0.2360 Ca        1 MOL      1.768476
    170 O24        -3.9990   -0.8010    1.7460 oh        1 MOL     -0.858089
    171 H77        -4.7630   -0.7170    2.3240 ho        1 MOL      0.409401
    172 H78        -3.2540   -0.8670    2.3550 ho        1 MOL      0.409401
    173 O25        -1.6720   -0.2650    2.8110 oh        1 MOL     -0.858089
    174 H79        -1.6710    0.1000    3.7050 ho        1 MOL      0.409401
    175 H80        -0.8150   -0.0340    2.4600 ho        1 MOL      0.409401
@<TRIPOS>BOND
     1    1    2 1   
     2    1    4 1   
     3    1    5 1   
     4    1    6 1   
     5    2    3 2   
     6    2    7 1   
     7    7    8 1   
     8    7   15 1   
     9    8    9 1   
    10    8   11 1   
    11    8   16 1   
    12    9   10 2   
    13    9   19 1   
    14   11   12 1   
    15   11   17 1   
    16   11   18 1   
    17   12   13 1   
    18   12   14 1   
    19   19   20 1   
    20   19   24 1   
    21   20   21 1   
    22   20   23 1   
    23   20   25 1   
    24   21   22 2   
    25   21   29 1   
    26   23   26 1   
    27   23   27 1   
    28   23   28 1   
    29   29   30 1   
    30   29   37 1   
    31   30   31 1   
    32   30   33 1   
    33   30   38 1   
    34   31   32 2   
    35   31   41 1   
    36   33   34 1   
    37   33   39 1   
    38   33   40 1   
    39   34   35 1   
    40   34   36 1   
    41   41   42 1   
    42   41   45 1   
    43   42   43 1   
    44   42   46 1   
    45   42   47 1   
    46   43   44 2   
    47   43   48 1   
    48   48   49 1   
    49   48   56 1   
    50   49   50 1   
    51   49   52 1   
    52   49   57 1   
    53   50   51 2   
    54   50   62 1   
    55   52   53 1   
    56   52   58 1   
    57   52   59 1   
    58   53   54 1   
    59   53   55 2   
    60   54   60 1   
    61   54   61 1   
    62   62   63 1   
    63   62   66 1   
    64   63   64 1   
    65   63   67 1   
    66   63   68 1   
    67   64   65 2   
    68   64   69 1   
    69   69   70 1   
    70   69   76 1   
    71   70   71 1   
    72   70   73 1   
    73   70   77 1   
    74   71   72 2   
    75   71   83 1   
    76   73   74 1   
    77   73   75 1   
    78   73   78 1   
    79   74   80 1   
    80   74   81 1   
    81   74   82 1   
    82   75   79 1   
    83   83   84 1   
    84   83   91 1   
    85   84   85 1   
    86   84   87 1   
    87   84   92 1   
    88   85   86 2   
    89   85  102 1   
    90   87   88 1   
    91   87   89 1   
    92   87   93 1   
    93   88   90 1   
    94   88   94 1   
    95   88   95 1   
    96   89   96 1   
    97   89   97 1   
    98   89   98 1   
    99   90   99 1   
   100   90  100 1   
   101   90  101 1   
   102  102  103 1   
   103  102  110 1   
   104  103  104 1   
   105  103  106 1   
   106  103  111 1   
   107  104  105 2   
   108  104  114 1   
   109  106  107 1   
   110  106  112 1   
   111  106  113 1   
   112  107  108 1   
   113  107  109 1   
   114  114  115 1   
   115  114  125 1   
   116  115  116 1   
   117  115  118 1   
   118  115  126 1   
   119  116  117 2   
   120  116  134 1   
   121  118  119 1   
   122  118  127 1   
   123  118  128 1   
   124  119  120 ar  
   125  119  121 ar  
   126  120  122 ar  
   127  120  129 1   
   128  121  123 ar  
   129  121  130 1   
   130  122  124 ar  
   131  122  131 1   
   132  123  124 ar  
   133  123  132 1   
   134  124  133 1   
   135  134  135 1   
   136  134  140 1   
   137  135  136 1   
   138  135  138 1   
   139  135  141 1   
   140  136  137 2   
   141  136  148 1   
   142  138  139 1   
   143  138  142 1   
   144  138  143 1   
   145  139  140 1   
   146  139  144 1   
   147  139  145 1   
   148  140  146 1   
   149  140  147 1   
   150  148  149 1   
   151  148  157 1   
   152  149  150 1   
   153  149  152 1   
   154  149  158 1   
   155  150  151 2   
   156  150  163 1   
   157  152  153 1   
   158  152  159 1   
   159  152  160 1   
   160  153  154 1   
   161  153  161 1   
   162  153  162 1   
   163  154  155 1   
   164  154  156 1   
   165  163  164 1   
   166  163  168 1   
   167  164  165 1   
   168  164  166 1   
   169  164  167 1   
   170  170  171 1   
   171  170  172 1   
   172  173  174 1   
   173  173  175 1   
@<TRIPOS>SUBSTRUCTURE
     1 MOL         1 TEMP              0 ****  ****    0 ROOT
