@<TRIPOS>MOLECULE
MOL
  179   176     1     0     0
SMALL
resp


@<TRIPOS>ATOM
      1 C1          2.1870    2.9610    5.5680 c3        1 MOL     -0.272262
      2 C2          1.5930    2.7320    4.1780 c         1 MOL      0.721815
      3 O1          2.2930    2.6850    3.2100 o         1 MOL     -0.664118
      4 H1          1.4500    2.6960    6.3260 hc        1 MOL      0.072270
      5 H2          3.0740    2.3390    5.6920 hc        1 MOL      0.072270
      6 H3          2.4600    4.0110    5.6790 hc        1 MOL      0.072270
      7 N1          0.2590    2.6590    4.0150 n         1 MOL     -0.541635
      8 C3         -0.2920    2.5000    2.7040 c3        1 MOL     -0.007013
      9 C4         -0.3250    3.8050    1.8820 c         1 MOL      0.520676
     10 O2         -0.9900    4.7740    2.2640 o         1 MOL     -0.527558
     11 C5         -1.7090    1.9250    2.8650 c3        1 MOL     -0.100623
     12 C6         -2.4960    1.6430    1.6060 c         1 MOL      0.802302
     13 O3         -3.6430    1.1340    1.6670 o         1 MOL     -0.745875
     14 O4         -1.9140    1.8410    0.4830 o         1 MOL     -0.745875
     15 H4         -0.3390    2.6370    4.8290 hn        1 MOL      0.323636
     16 H5          0.2760    1.7070    2.2280 h1        1 MOL      0.013450
     17 H6         -2.3070    2.6150    3.4620 hc        1 MOL      0.038647
     18 H7         -1.6430    1.0090    3.4590 hc        1 MOL      0.038647
     19 N2          0.3640    3.8140    0.6650 n         1 MOL     -0.231938
     20 C7          0.6950    5.0300   -0.0500 c3        1 MOL     -0.045347
     21 C8         -0.3640    5.5540   -1.0290 c         1 MOL      0.487915
     22 O5         -0.2960    6.7210   -1.3300 o         1 MOL     -0.559264
     23 C9          2.0070    4.7750   -0.7430 c3        1 MOL      0.071373
     24 C10         3.1800    5.2630    0.0720 c3        1 MOL     -0.189667
     25 C11         3.4900    4.8670    1.5750 c3        1 MOL      0.099399
     26 C12         4.7700    5.5950    2.0120 c3        1 MOL     -0.138523
     27 N3          4.7430    7.0370    1.8370 n4        1 MOL     -0.239384
     28 H8          0.7440    2.9620    0.2790 hn        1 MOL      0.201480
     29 H9          0.8090    5.8320    0.6790 h1        1 MOL      0.055698
     30 H10         1.9420    5.3600   -1.6610 hc        1 MOL      0.040091
     31 H11         2.1290    3.7510   -1.1130 hc        1 MOL      0.040091
     32 H12         2.9420    6.3210   -0.0080 hc        1 MOL      0.024113
     33 H13         4.0180    4.8300   -0.4850 hc        1 MOL      0.024113
     34 H14         3.5700    3.7730    1.5520 hc        1 MOL      0.068936
     35 H15         2.6910    5.2430    2.2050 hc        1 MOL      0.068936
     36 H16         5.6110    5.1210    1.5120 hx        1 MOL      0.120781
     37 H17         4.9030    5.3670    3.0710 hx        1 MOL      0.120781
     38 H18         4.1310    7.5530    2.4500 hn        1 MOL      0.297054
     39 H19         5.6870    7.3720    1.9950 hn        1 MOL      0.297054
     40 H20         4.4960    7.3430    0.8930 hn        1 MOL      0.297054
     41 N4         -1.2630    4.6890   -1.5340 n         1 MOL     -0.332744
     42 C13        -2.4500    5.0520   -2.3290 c3        1 MOL      0.085124
     43 C14        -3.7780    4.6430   -1.6240 c         1 MOL      0.309252
     44 O6         -4.8210    5.1030   -2.0990 o         1 MOL     -0.513610
     45 C15        -2.4130    4.3500   -3.6740 c3        1 MOL     -0.180330
     46 C16        -2.3790    2.7880   -3.7660 c         1 MOL      0.720175
     47 O7         -2.3390    2.1220   -2.7000 o         1 MOL     -0.691322
     48 O8         -2.3220    2.2750   -4.8890 o         1 MOL     -0.691322
     49 H21        -1.1840    3.7390   -1.1880 hn        1 MOL      0.134518
     50 H22        -2.5970    6.1200   -2.5040 h1        1 MOL      0.115701
     51 H23        -1.8010    4.9080   -4.3850 hc        1 MOL      0.059630
     52 H24        -3.3350    4.6770   -4.1580 hc        1 MOL      0.059630
     53 N5         -3.7760    4.0140   -0.4620 n         1 MOL     -0.011729
     54 C17        -4.9540    3.8640    0.3960 c3        1 MOL     -0.224769
     55 C18        -5.9760    2.9570   -0.2330 c         1 MOL      0.575910
     56 O9         -7.1790    3.2310   -0.0790 o         1 MOL     -0.571644
     57 H25        -2.9180    3.7430    0.0180 hn        1 MOL      0.137323
     58 H26        -5.2750    4.8850    0.6290 h1        1 MOL      0.110580
     59 H27        -4.6670    3.3090    1.2970 h1        1 MOL      0.110580
     60 N6         -5.5170    1.8710   -0.8070 n         1 MOL     -0.079217
     61 C19        -6.4240    0.7750   -1.2670 c3        1 MOL     -0.232424
     62 C20        -6.6070   -0.4540   -0.2300 c         1 MOL      0.423672
     63 O10        -7.2620   -1.4460   -0.5230 o         1 MOL     -0.449824
     64 C21        -5.8250    0.2070   -2.5660 c3        1 MOL     -0.036194
     65 C22        -4.5400   -0.5720   -2.5410 c         1 MOL      0.555516
     66 N7         -4.3980   -1.4210   -3.5360 n         1 MOL     -0.835460
     67 O11        -3.7250   -0.5660   -1.6460 o         1 MOL     -0.400625
     68 H28        -4.6210    1.5350   -0.4920 hn        1 MOL     -0.113133
     69 H29        -7.4080    1.1630   -1.5270 h1        1 MOL      0.170219
     70 H30        -5.7880    0.9470   -3.3790 hc        1 MOL      0.058757
     71 H31        -6.4960   -0.5730   -2.9400 hc        1 MOL      0.058757
     72 H32        -5.1430   -1.5080   -4.1980 hn        1 MOL      0.387543
     73 H33        -3.6820   -2.1280   -3.5130 hn        1 MOL      0.387543
     74 N8         -6.0330   -0.2790    0.9640 n         1 MOL     -0.318893
     75 C23        -6.1980   -1.2700    2.0530 c3        1 MOL     -0.139869
     76 C24        -5.1890   -2.4040    2.1780 c         1 MOL      0.557330
     77 O12        -5.3950   -3.3700    2.8980 o         1 MOL     -0.543227
     78 H34        -5.5220    0.5700    1.1690 hn        1 MOL      0.352402
     79 H35        -7.2160   -1.6680    2.0550 h1        1 MOL      0.103622
     80 H36        -6.1680   -0.7590    3.0190 h1        1 MOL      0.103622
     81 N9         -4.1000   -2.2780    1.4410 n         1 MOL     -0.327249
     82 C25        -2.9760   -3.1830    1.4330 c3        1 MOL     -0.005638
     83 C26        -1.6360   -2.4320    1.3470 c         1 MOL      0.515033
     84 O13        -1.5690   -1.5760    0.4530 o         1 MOL     -0.597734
     85 C27        -3.1190   -4.2000    0.2810 c3        1 MOL      0.191327
     86 C28        -4.4990   -4.8670    0.2630 ca        1 MOL     -0.216825
     87 C29        -5.4900   -4.3860   -0.6490 ca        1 MOL     -0.094822
     88 C30        -4.8650   -5.8040    1.2310 ca        1 MOL     -0.094822
     89 C31        -6.7430   -5.0940   -0.5490 ca        1 MOL     -0.178361
     90 C32        -6.1390   -6.3870    1.3290 ca        1 MOL     -0.178361
     91 C33        -7.0800   -6.0860    0.3360 ca        1 MOL      0.278041
     92 O14        -8.2940   -6.5790    0.3380 oh        1 MOL     -0.486237
     93 H37        -3.9490   -1.4440    0.8960 hn        1 MOL      0.266785
     94 H38        -3.0060   -3.6970    2.3980 h1        1 MOL      0.059177
     95 H39        -2.3550   -4.9710    0.4260 hc        1 MOL     -0.015723
     96 H40        -2.9210   -3.7260   -0.6850 hc        1 MOL     -0.015723
     97 H41        -5.2390   -3.5220   -1.2480 ha        1 MOL      0.112989
     98 H42        -4.1920   -6.2640    1.9510 ha        1 MOL      0.112989
     99 H43        -7.4790   -4.7790   -1.2760 ha        1 MOL      0.108340
    100 H44        -6.3730   -7.1280    2.0830 ha        1 MOL      0.108340
    101 H45        -8.4580   -7.1970    1.0540 ho        1 MOL      0.387518
    102 N10        -0.6240   -2.7480    2.1170 n         1 MOL     -0.442305
    103 C34         0.7370   -2.2860    1.8860 c3        1 MOL      0.064854
    104 C35         1.5190   -3.4070    1.1720 c         1 MOL      0.388195
    105 O15         1.4430   -4.6210    1.5180 o         1 MOL     -0.552099
    106 C36         1.4490   -1.9350    3.2540 c3        1 MOL      0.360018
    107 C37         0.4930   -1.0680    4.1430 c3        1 MOL      0.165268
    108 C38         2.7270   -1.1740    3.0150 c3        1 MOL     -0.662859
    109 C39         0.9020   -1.4440    5.6280 c3        1 MOL     -0.134569
    110 H46        -0.7610   -3.4570    2.8250 hn        1 MOL      0.281525
    111 H47         0.7330   -1.3990    1.2650 h1        1 MOL      0.006839
    112 H48         1.6430   -2.8870    3.7460 hc        1 MOL     -0.050304
    113 H49        -0.5370   -1.3670    4.0130 hc        1 MOL     -0.040837
    114 H50         0.7320   -0.0010    4.1210 hc        1 MOL     -0.040837
    115 H51         2.5220   -0.3100    2.3830 hc        1 MOL      0.154250
    116 H52         3.1010   -0.7920    3.9630 hc        1 MOL      0.154250
    117 H53         3.4240   -1.8670    2.5370 hc        1 MOL      0.154250
    118 H54         0.5800   -2.4280    5.9690 hc        1 MOL      0.018597
    119 H55         1.9770   -1.3180    5.7700 hc        1 MOL      0.018597
    120 H56         0.3950   -0.7520    6.2960 hc        1 MOL      0.018597
    121 N11         2.1510   -3.0260    0.0850 n         1 MOL     -0.084643
    122 C40         3.0280   -3.9030   -0.7820 c3        1 MOL     -0.143089
    123 C41         4.5030   -3.7880   -0.4250 c         1 MOL      0.525737
    124 O16         4.9000   -2.8880    0.3070 o         1 MOL     -0.464551
    125 C42         2.7010   -3.4780   -2.2340 c3        1 MOL      0.008353
    126 O17         2.9300   -2.1560   -2.4350 oh        1 MOL     -0.549987
    127 H57         2.0160   -2.0810   -0.2440 hn        1 MOL      0.208649
    128 H58         2.7720   -4.9520   -0.6510 h1        1 MOL      0.076552
    129 H59         1.6550   -3.7100   -2.4110 h1        1 MOL      0.064245
    130 H60         3.2830   -4.1030   -2.9100 h1        1 MOL      0.064245
    131 H61         2.1950   -1.5960   -2.1680 ho        1 MOL      0.400722
    132 N12         5.3280   -4.6760   -0.9890 n         1 MOL     -0.403481
    133 C43         6.7930   -4.6870   -0.7060 c3        1 MOL      0.094529
    134 C44         7.5600   -3.5010   -1.2220 c         1 MOL      0.434748
    135 O18         8.4780   -3.0330   -0.5670 o         1 MOL     -0.504458
    136 C45         7.2290   -6.0930   -1.0910 c3        1 MOL     -0.340248
    137 H62         4.9010   -5.4230   -1.5160 hn        1 MOL      0.268847
    138 H63         6.8620   -4.6850    0.3830 h1        1 MOL      0.091537
    139 H64         7.1020   -6.1900   -2.1700 hc        1 MOL      0.107739
    140 H65         8.2470   -6.3500   -0.7960 hc        1 MOL      0.107739
    141 H66         6.6110   -6.7830   -0.5170 hc        1 MOL      0.107739
    142 N13         7.1120   -3.0000   -2.3750 n         1 MOL     -0.299540
    143 C46         7.5800   -1.7220   -2.8590 c3        1 MOL      0.124121
    144 C47         7.1980   -0.5610   -1.9790 c         1 MOL      0.328456
    145 O19         7.9360    0.4060   -1.8700 o         1 MOL     -0.514564
    146 C48         7.2070   -1.6020   -4.2870 c3        1 MOL     -0.182884
    147 H67         6.3620   -3.4750   -2.8560 hn        1 MOL      0.247620
    148 H68         8.6630   -1.8210   -2.8420 h1        1 MOL      0.077346
    149 H69         7.6990   -0.7740   -4.8120 hc        1 MOL      0.053905
    150 H70         7.4670   -2.5750   -4.6950 hc        1 MOL      0.053905
    151 H71         6.1480   -1.3970   -4.4380 hc        1 MOL      0.053905
    152 N14         6.0000   -0.5150   -1.3720 n         1 MOL     -0.080778
    153 C49         5.5800    0.6390   -0.5130 c3        1 MOL     -0.129621
    154 C50         6.2010    0.5780    0.8220 c         1 MOL      0.499196
    155 O20         6.4160    1.6560    1.3340 o         1 MOL     -0.560151
    156 C51         4.0250    0.6140   -0.2680 c3        1 MOL      0.014660
    157 C52         3.2750    1.0310   -1.5210 c3        1 MOL     -0.151831
    158 C53         1.7620    0.8200   -1.3260 c         1 MOL      0.766742
    159 O21         1.2520   -0.2780   -0.9760 o         1 MOL     -0.723617
    160 O22         0.9450    1.7260   -1.6270 o         1 MOL     -0.723617
    161 H72         5.4360   -1.3310   -1.5600 hn        1 MOL      0.129553
    162 H73         5.9920    1.5270   -0.9820 h1        1 MOL      0.128397
    163 H74         3.7250    1.2630    0.5540 hc        1 MOL      0.062922
    164 H75         3.7710   -0.4200   -0.0430 hc        1 MOL      0.062922
    165 H76         3.5650    0.4420   -2.3860 hc        1 MOL      0.023867
    166 H77         3.3820    2.1000   -1.7370 hc        1 MOL      0.023867
    167 N15         6.5580   -0.6510    1.3170 n         1 MOL     -0.161752
    168 C54         7.2890   -0.7310    2.5820 c3        1 MOL     -0.324720
    169 H78         6.5850   -0.8940    3.3990 h1        1 MOL      0.121057
    170 H79         7.9960   -1.5580    2.5420 h1        1 MOL      0.121057
    171 H80         7.8290    0.2010    2.7510 h1        1 MOL      0.121057
    172 H81         6.3600   -1.5300    0.8480 hn        1 MOL      0.194333
    173 Ca1        -1.2430    0.2850   -1.4190 Ca        1 MOL      1.676768
    174 O23        -1.0860   -2.3030   -2.3380 oh        1 MOL     -0.854061
    175 H82        -1.1490   -2.4390   -3.2870 ho        1 MOL      0.405327
    176 H83        -0.7380   -3.1290   -2.0000 ho        1 MOL      0.405327
    177 O24        -0.5350    0.2190   -4.0150 oh        1 MOL     -0.854061
    178 H84        -0.0360   -0.1230   -4.7480 ho        1 MOL      0.405327
    179 H85        -1.1450    0.8470   -4.4170 ho        1 MOL      0.405327
@<TRIPOS>BOND
     1    1    2 1   
     2    1    4 1   
     3    1    5 1   
     4    1    6 1   
     5    2    3 2   
     6    2    7 1   
     7    7    8 1   
     8    7   15 1   
     9    8    9 1   
    10    8   11 1   
    11    8   16 1   
    12    9   10 2   
    13    9   19 1   
    14   11   12 1   
    15   11   17 1   
    16   11   18 1   
    17   12   13 1   
    18   12   14 1   
    19   19   20 1   
    20   19   28 1   
    21   20   21 1   
    22   20   23 1   
    23   20   29 1   
    24   21   22 2   
    25   21   41 1   
    26   23   24 1   
    27   23   30 1   
    28   23   31 1   
    29   24   25 1   
    30   24   32 1   
    31   24   33 1   
    32   25   26 1   
    33   25   34 1   
    34   25   35 1   
    35   26   27 1   
    36   26   36 1   
    37   26   37 1   
    38   27   38 1   
    39   27   39 1   
    40   27   40 1   
    41   41   42 1   
    42   41   49 1   
    43   42   43 1   
    44   42   45 1   
    45   42   50 1   
    46   43   44 2   
    47   43   53 1   
    48   45   46 1   
    49   45   51 1   
    50   45   52 1   
    51   46   47 1   
    52   46   48 1   
    53   53   54 1   
    54   53   57 1   
    55   54   55 1   
    56   54   58 1   
    57   54   59 1   
    58   55   56 2   
    59   55   60 1   
    60   60   61 1   
    61   60   68 1   
    62   61   62 1   
    63   61   64 1   
    64   61   69 1   
    65   62   63 2   
    66   62   74 1   
    67   64   65 1   
    68   64   70 1   
    69   64   71 1   
    70   65   66 1   
    71   65   67 2   
    72   66   72 1   
    73   66   73 1   
    74   74   75 1   
    75   74   78 1   
    76   75   76 1   
    77   75   79 1   
    78   75   80 1   
    79   76   77 2   
    80   76   81 1   
    81   81   82 1   
    82   81   93 1   
    83   82   83 1   
    84   82   85 1   
    85   82   94 1   
    86   83   84 2   
    87   83  102 1   
    88   85   86 1   
    89   85   95 1   
    90   85   96 1   
    91   86   87 ar  
    92   86   88 ar  
    93   87   89 ar  
    94   87   97 1   
    95   88   90 ar  
    96   88   98 1   
    97   89   91 ar  
    98   89   99 1   
    99   90   91 ar  
   100   90  100 1   
   101   91   92 1   
   102   92  101 1   
   103  102  103 1   
   104  102  110 1   
   105  103  104 1   
   106  103  106 1   
   107  103  111 1   
   108  104  105 2   
   109  104  121 1   
   110  106  107 1   
   111  106  108 1   
   112  106  112 1   
   113  107  109 1   
   114  107  113 1   
   115  107  114 1   
   116  108  115 1   
   117  108  116 1   
   118  108  117 1   
   119  109  118 1   
   120  109  119 1   
   121  109  120 1   
   122  121  122 1   
   123  121  127 1   
   124  122  123 1   
   125  122  125 1   
   126  122  128 1   
   127  123  124 2   
   128  123  132 1   
   129  125  126 1   
   130  125  129 1   
   131  125  130 1   
   132  126  131 1   
   133  132  133 1   
   134  132  137 1   
   135  133  134 1   
   136  133  136 1   
   137  133  138 1   
   138  134  135 2   
   139  134  142 1   
   140  136  139 1   
   141  136  140 1   
   142  136  141 1   
   143  142  143 1   
   144  142  147 1   
   145  143  144 1   
   146  143  146 1   
   147  143  148 1   
   148  144  145 2   
   149  144  152 1   
   150  146  149 1   
   151  146  150 1   
   152  146  151 1   
   153  152  153 1   
   154  152  161 1   
   155  153  154 1   
   156  153  156 1   
   157  153  162 1   
   158  154  155 2   
   159  154  167 1   
   160  156  157 1   
   161  156  163 1   
   162  156  164 1   
   163  157  158 1   
   164  157  165 1   
   165  157  166 1   
   166  158  159 1   
   167  158  160 1   
   168  167  168 1   
   169  167  172 1   
   170  168  169 1   
   171  168  170 1   
   172  168  171 1   
   173  174  175 1   
   174  174  176 1   
   175  177  178 1   
   176  177  179 1   
@<TRIPOS>SUBSTRUCTURE
     1 MOL         1 TEMP              0 ****  ****    0 ROOT
