@<TRIPOS>MOLECULE
MOL
  182   178     1     0     0
SMALL
resp


@<TRIPOS>ATOM
      1 C1         -2.5240   -2.1570    5.3280 c3        1 MOL     -0.268147
      2 C2         -1.7020   -2.3990    4.0630 c         1 MOL      0.726477
      3 O1         -2.2570   -2.9570    3.0970 o         1 MOL     -0.606933
      4 H1         -3.5590   -2.4480    5.1500 hc        1 MOL      0.067662
      5 H2         -2.1160   -2.7490    6.1470 hc        1 MOL      0.067662
      6 H3         -2.4850   -1.0990    5.5900 hc        1 MOL      0.067662
      7 N1         -0.3800   -2.1380    4.1460 n         1 MOL     -0.599221
      8 C3          0.4400   -2.1700    2.8890 c3        1 MOL      0.088059
      9 C4          0.3590   -3.5510    2.0950 c         1 MOL      0.564801
     10 O2          0.9380   -4.5030    2.5900 o         1 MOL     -0.555526
     11 C5          1.9580   -1.8670    3.0770 c3        1 MOL      0.080087
     12 C6          2.7250   -1.4870    1.7830 c         1 MOL      0.624183
     13 O3          2.2670   -1.8900    0.6810 o         1 MOL     -0.755988
     14 O4          3.8000   -0.8300    1.8160 o         1 MOL     -0.755988
     15 H4          0.0010   -1.8280    5.0360 hn        1 MOL      0.331100
     16 H5          0.0200   -1.4350    2.2030 h1        1 MOL     -0.039053
     17 H6          2.3730   -2.6450    3.7150 hc        1 MOL     -0.005933
     18 H7          1.9150   -0.9470    3.6460 hc        1 MOL     -0.005933
     19 N2         -0.4090   -3.7350    0.9590 n         1 MOL     -0.122469
     20 C7         -0.5550   -4.9770    0.2110 c3        1 MOL     -0.103865
     21 C8          0.7260   -5.6190   -0.3050 c         1 MOL      0.585360
     22 O5          0.6670   -6.7760   -0.7630 o         1 MOL     -0.600951
     23 C9         -1.5220   -4.6930   -0.9230 c3        1 MOL     -0.010949
     24 C10        -2.9110   -5.1510   -0.5210 c3        1 MOL      0.056240
     25 C11        -3.9290   -4.8190   -1.5540 c3        1 MOL     -0.120267
     26 C12        -5.3050   -5.3430   -1.2050 c3        1 MOL      0.079492
     27 N3         -6.2350   -5.1870   -2.3400 n4        1 MOL     -0.233248
     28 H8         -0.8330   -2.9020    0.5690 hn        1 MOL      0.120304
     29 H9         -0.9690   -5.7640    0.8450 h1        1 MOL      0.079370
     30 H10        -1.2710   -5.2430   -1.8310 hc        1 MOL      0.028213
     31 H11        -1.5710   -3.6390   -1.1970 hc        1 MOL      0.028213
     32 H12        -3.2450   -4.6410    0.3900 hc        1 MOL      0.031084
     33 H13        -2.8130   -6.2130   -0.2900 hc        1 MOL      0.031084
     34 H14        -3.6360   -5.2810   -2.4900 hc        1 MOL      0.023987
     35 H15        -3.9790   -3.7250   -1.5800 hc        1 MOL      0.023987
     36 H16        -5.7020   -4.7920   -0.3560 hx        1 MOL      0.071267
     37 H17        -5.2290   -6.4060   -1.0020 hx        1 MOL      0.071267
     38 H18        -7.2010   -5.2010   -2.0560 hn        1 MOL      0.290687
     39 H19        -6.0350   -4.3460   -2.8550 hn        1 MOL      0.290687
     40 H20        -6.0320   -5.8620   -3.0690 hn        1 MOL      0.290687
     41 N4          1.8600   -4.9730   -0.3100 n         1 MOL     -0.374946
     42 C13         3.1120   -5.4310   -0.9380 c3        1 MOL      0.087552
     43 C14         4.3880   -4.9140   -0.2830 c         1 MOL      0.398916
     44 O6          5.5110   -5.0580   -0.7920 o         1 MOL     -0.514044
     45 C15         3.1740   -5.2500   -2.4620 c3        1 MOL     -0.167093
     46 C16         2.8950   -3.7790   -2.9940 c         1 MOL      0.729408
     47 O7          2.8620   -3.5750   -4.2250 o         1 MOL     -0.708669
     48 O8          2.5340   -2.9060   -2.1680 o         1 MOL     -0.708669
     49 H21         1.7930   -3.9710   -0.1820 hn        1 MOL      0.135435
     50 H22         3.1820   -6.5190   -0.7930 h1        1 MOL      0.096091
     51 H23         2.4300   -5.8730   -2.9540 hc        1 MOL      0.045328
     52 H24         4.1600   -5.6210   -2.7440 hc        1 MOL      0.045328
     53 N5          4.2380   -4.3530    0.9020 n         1 MOL     -0.211332
     54 C17         5.3720   -3.9220    1.7960 c3        1 MOL     -0.267407
     55 C18         6.2740   -2.7420    1.2530 c         1 MOL      0.541444
     56 O9          7.3830   -2.5830    1.8380 o         1 MOL     -0.563673
     57 H25         3.2780   -4.2340    1.1930 hn        1 MOL      0.177168
     58 H26         6.0230   -4.7680    1.9880 h1        1 MOL      0.155975
     59 H27         4.9630   -3.4940    2.7120 h1        1 MOL      0.155975
     60 N6          5.8740   -1.9790    0.1680 n         1 MOL     -0.270970
     61 C19         6.7190   -0.9190   -0.6020 c3        1 MOL     -0.144465
     62 C20         6.9370    0.4650    0.1400 c         1 MOL      0.376403
     63 O10         7.7280    1.2800   -0.2910 o         1 MOL     -0.459840
     64 C21         6.1500   -0.7830   -2.0390 c3        1 MOL     -0.040657
     65 C22         5.1370    0.3460   -2.0440 c         1 MOL      0.586082
     66 N7          5.3870    1.3680   -2.9100 n         1 MOL     -0.649766
     67 O11         4.1780    0.4060   -1.3180 o         1 MOL     -0.678952
     68 H28         4.8880   -2.0510   -0.0260 hn        1 MOL      0.260323
     69 H29         7.7240   -1.3390   -0.6990 h1        1 MOL      0.161232
     70 H30         5.6450   -1.7330   -2.2510 hc        1 MOL      0.049633
     71 H31         6.9140   -0.5350   -2.7640 hc        1 MOL      0.049633
     72 H32         6.1440    1.3530   -3.5810 hn        1 MOL      0.319711
     73 H33         4.7870    2.1640   -3.0740 hn        1 MOL      0.319711
     74 N8          6.2800    0.6380    1.3080 n         1 MOL     -0.149169
     75 C23         6.2080    1.8330    2.0780 c3        1 MOL     -0.318156
     76 C24         5.1930    2.9350    1.8170 c         1 MOL      0.734855
     77 O12         5.4150    4.0690    2.1970 o         1 MOL     -0.554513
     78 H34         5.6590   -0.1230    1.5140 hn        1 MOL      0.289531
     79 H35         7.1200    2.3900    1.8590 h1        1 MOL      0.119870
     80 H36         6.2580    1.6090    3.1480 h1        1 MOL      0.119870
     81 N9          4.0880    2.5430    1.1790 n         1 MOL     -0.658518
     82 C25         3.0550    3.4650    0.6870 c3        1 MOL      0.193266
     83 C26         1.6610    2.7650    0.6500 c         1 MOL      0.396252
     84 O13         1.4850    1.6500    0.1520 o         1 MOL     -0.678830
     85 C27         3.4590    3.9480   -0.7410 c3        1 MOL     -0.162790
     86 C28         4.6840    4.8750   -0.7440 ca        1 MOL      0.212003
     87 C29         5.9910    4.5600   -1.2050 ca        1 MOL     -0.365867
     88 C30         4.4910    6.2000   -0.3120 ca        1 MOL     -0.365867
     89 C31         7.0260    5.4670   -1.2300 ca        1 MOL      0.010549
     90 C32         5.5310    7.1510   -0.3150 ca        1 MOL      0.010549
     91 C33         6.8030    6.8300   -0.8290 ca        1 MOL      0.080050
     92 O14         7.8110    7.7250   -0.6410 oh        1 MOL     -0.414208
     93 H37         3.9170    1.6000    0.8540 hn        1 MOL      0.509630
     94 H38         3.1100    4.3520    1.3220 h1        1 MOL      0.050269
     95 H39         2.6540    4.3890   -1.3370 hc        1 MOL      0.070530
     96 H40         3.7760    3.0850   -1.3240 hc        1 MOL      0.070530
     97 H41         6.0980    3.5370   -1.5240 ha        1 MOL      0.158354
     98 H42         3.5710    6.4840    0.1760 ha        1 MOL      0.158354
     99 H43         7.9840    5.1260   -1.5840 ha        1 MOL      0.087218
    100 H44         5.3730    8.2060   -0.1450 ha        1 MOL      0.087218
    101 H45         7.4990    8.5760   -0.3200 ho        1 MOL      0.341043
    102 N10         0.5090    3.4110    0.9470 n         1 MOL     -0.333118
    103 C34        -0.8410    2.8090    0.8280 c3        1 MOL     -0.095045
    104 C35        -1.7620    3.8510    0.1660 c         1 MOL      0.443530
    105 O15        -1.6410    5.0880    0.0630 o         1 MOL     -0.505909
    106 C36        -1.3940    2.3000    2.1880 c3        1 MOL     -0.166375
    107 C37        -1.7570    3.4010    3.1420 c3        1 MOL     -0.017468
    108 C38        -0.3600    1.3540    2.7640 c3        1 MOL      0.164469
    109 C39        -2.1310    2.8630    4.5380 c3        1 MOL     -0.225892
    110 H46         0.7040    4.3300    1.3030 hn        1 MOL      0.255123
    111 H47        -0.8380    1.8920    0.2480 h1        1 MOL      0.292720
    112 H48        -2.2840    1.7110    1.9840 hc        1 MOL      0.083663
    113 H49        -2.5780    4.0090    2.7640 hc        1 MOL      0.051308
    114 H50        -1.0240    4.2030    3.2110 hc        1 MOL      0.051308
    115 H51        -0.7960    0.9720    3.6790 hc        1 MOL     -0.011288
    116 H52        -0.2130    0.5360    2.0560 hc        1 MOL     -0.011288
    117 H53         0.5900    1.8120    3.0460 hc        1 MOL     -0.011288
    118 H54        -2.5840    3.6290    5.1800 hc        1 MOL      0.059870
    119 H55        -2.9660    2.1800    4.4000 hc        1 MOL      0.059870
    120 H56        -1.2280    2.4820    5.0300 hc        1 MOL      0.059870
    121 N11        -2.8650    3.1890   -0.2590 n         1 MOL     -0.040092
    122 C40        -3.8650    3.7550   -1.1270 c3        1 MOL     -0.099231
    123 C41        -5.2540    3.5790   -0.5340 c         1 MOL      0.623937
    124 O16        -5.4800    2.8720    0.4410 o         1 MOL     -0.583043
    125 C42        -3.9060    3.0690   -2.5440 c3        1 MOL     -0.013047
    126 O17        -4.0530    1.6700   -2.3440 oh        1 MOL     -0.436749
    127 H57        -2.8050    2.1860   -0.3180 hn        1 MOL     -0.104809
    128 H58        -3.7090    4.8300   -1.0930 h1        1 MOL      0.067693
    129 H59        -2.9860    3.2880   -3.0980 h1        1 MOL      0.080914
    130 H60        -4.6240    3.4650   -3.2480 h1        1 MOL      0.080914
    131 H61        -3.2140    1.2240   -2.2060 ho        1 MOL      0.310155
    132 N12        -6.2100    4.2220   -1.1530 n         1 MOL     -0.395132
    133 C43        -7.5750    4.0430   -0.7520 c3        1 MOL      0.012408
    134 C44        -8.0200    2.5760   -0.9950 c         1 MOL      0.499605
    135 O18        -8.9870    2.1510   -0.3580 o         1 MOL     -0.531365
    136 C45        -8.5730    5.0320   -1.4850 c3        1 MOL     -0.197720
    137 H62        -6.0180    4.8620   -1.9090 hn        1 MOL      0.266537
    138 H63        -7.6830    4.2600    0.3100 h1        1 MOL      0.112958
    139 H64        -9.5540    5.0170   -1.0040 hc        1 MOL      0.075260
    140 H65        -8.2060    6.0570   -1.4780 hc        1 MOL      0.075260
    141 H66        -8.6970    4.6730   -2.5090 hc        1 MOL      0.075260
    142 N13        -7.4340    1.8260   -1.9090 n         1 MOL     -0.350498
    143 C46        -7.7840    0.3860   -2.0620 c3        1 MOL      0.085774
    144 C47        -7.3000   -0.3420   -0.8010 c         1 MOL      0.318096
    145 O19        -7.8780   -1.1960   -0.1550 o         1 MOL     -0.483690
    146 C48        -7.1900   -0.1380   -3.3270 c3        1 MOL     -0.265256
    147 H67        -6.6470    2.2590   -2.3570 hn        1 MOL      0.240256
    148 H68        -8.8600    0.3270   -2.1670 h1        1 MOL      0.097165
    149 H69        -7.7170    0.2790   -4.1970 hc        1 MOL      0.074107
    150 H70        -6.1770    0.2250   -3.4810 hc        1 MOL      0.074107
    151 H71        -7.2100   -1.2280   -3.4020 hc        1 MOL      0.074107
    152 N14        -6.0590    0.0940   -0.3660 n         1 MOL      0.061148
    153 C49        -5.3750   -0.5260    0.7750 c3        1 MOL     -0.216588
    154 C50        -5.9460   -0.2240    2.1370 c         1 MOL      0.624687
    155 O20        -5.8270   -1.1220    2.9500 o         1 MOL     -0.562258
    156 C51        -3.8930   -0.1690    0.6880 c3        1 MOL      0.012742
    157 C52        -3.1460   -1.1250   -0.2810 c3        1 MOL      0.262812
    158 C53        -1.7140   -0.5890   -0.6460 c         1 MOL      0.563382
    159 O21        -0.7130   -1.1540   -0.1790 o         1 MOL     -0.633298
    160 O22        -1.6520    0.5000   -1.3380 o         1 MOL     -0.633298
    161 H72        -5.5070    0.7480   -0.8920 hn        1 MOL     -0.030358
    162 H73        -5.4960   -1.6090    0.7070 h1        1 MOL      0.114580
    163 H74        -3.3960   -0.1610    1.6610 hc        1 MOL      0.024092
    164 H75        -3.7690    0.8750    0.4020 hc        1 MOL      0.024092
    165 H76        -3.6510   -1.3010   -1.2300 hc        1 MOL     -0.094526
    166 H77        -3.0240   -2.0440    0.2980 hc        1 MOL     -0.094526
    167 N15        -6.6670    0.8810    2.3330 n         1 MOL     -0.305423
    168 C54        -7.7350    1.0540    3.3210 c3        1 MOL     -0.297742
    169 H78        -8.6900    0.7780    2.8750 h1        1 MOL      0.127645
    170 H79        -7.5390    0.4160    4.1830 h1        1 MOL      0.127645
    171 H80        -7.7710    2.0960    3.6400 h1        1 MOL      0.127645
    172 H81        -6.6790    1.5150    1.5430 hn        1 MOL      0.279833
    173 Ca1         1.5380   -0.5370   -1.3370 Ca        1 MOL      1.820297
    174 O23        -0.1390   -1.7060   -3.0440 oh        1 MOL     -0.847593
    175 H82        -1.0380   -1.7840   -3.3660 ho        1 MOL      0.409036
    176 H83         0.2880   -2.5040   -3.3560 ho        1 MOL      0.409036
    177 O24         0.2750    1.5710   -2.5860 oh        1 MOL     -0.847593
    178 H84        -0.4870    1.1700   -2.1730 ho        1 MOL      0.409036
    179 H85        -0.0790    2.3090   -3.0800 ho        1 MOL      0.409036
    180 O25         2.3850   -0.1930   -3.9680 oh        1 MOL     -0.847593
    181 H86         3.2070   -0.5740   -4.2720 ho        1 MOL      0.409036
    182 H87         1.9190    0.0380   -4.7760 ho        1 MOL      0.409036
@<TRIPOS>BOND
     1    1    2 1   
     2    1    4 1   
     3    1    5 1   
     4    1    6 1   
     5    2    3 2   
     6    2    7 1   
     7    7    8 1   
     8    7   15 1   
     9    8    9 1   
    10    8   11 1   
    11    8   16 1   
    12    9   10 2   
    13    9   19 1   
    14   11   12 1   
    15   11   17 1   
    16   11   18 1   
    17   12   13 1   
    18   12   14 1   
    19   19   20 1   
    20   19   28 1   
    21   20   21 1   
    22   20   23 1   
    23   20   29 1   
    24   21   22 2   
    25   21   41 1   
    26   23   24 1   
    27   23   30 1   
    28   23   31 1   
    29   24   25 1   
    30   24   32 1   
    31   24   33 1   
    32   25   26 1   
    33   25   34 1   
    34   25   35 1   
    35   26   27 1   
    36   26   36 1   
    37   26   37 1   
    38   27   38 1   
    39   27   39 1   
    40   27   40 1   
    41   41   42 1   
    42   41   49 1   
    43   42   43 1   
    44   42   45 1   
    45   42   50 1   
    46   43   44 2   
    47   43   53 1   
    48   45   46 1   
    49   45   51 1   
    50   45   52 1   
    51   46   47 1   
    52   46   48 1   
    53   53   54 1   
    54   53   57 1   
    55   54   55 1   
    56   54   58 1   
    57   54   59 1   
    58   55   56 2   
    59   55   60 1   
    60   60   61 1   
    61   60   68 1   
    62   61   62 1   
    63   61   64 1   
    64   61   69 1   
    65   62   63 2   
    66   62   74 1   
    67   64   65 1   
    68   64   70 1   
    69   64   71 1   
    70   65   66 1   
    71   65   67 2   
    72   66   72 1   
    73   66   73 1   
    74   74   75 1   
    75   74   78 1   
    76   75   76 1   
    77   75   79 1   
    78   75   80 1   
    79   76   77 2   
    80   76   81 1   
    81   81   82 1   
    82   81   93 1   
    83   82   83 1   
    84   82   85 1   
    85   82   94 1   
    86   83   84 2   
    87   83  102 1   
    88   85   86 1   
    89   85   95 1   
    90   85   96 1   
    91   86   87 ar  
    92   86   88 ar  
    93   87   89 ar  
    94   87   97 1   
    95   88   90 ar  
    96   88   98 1   
    97   89   91 ar  
    98   89   99 1   
    99   90   91 ar  
   100   90  100 1   
   101   91   92 1   
   102   92  101 1   
   103  102  103 1   
   104  102  110 1   
   105  103  104 1   
   106  103  106 1   
   107  103  111 1   
   108  104  105 2   
   109  104  121 1   
   110  106  107 1   
   111  106  108 1   
   112  106  112 1   
   113  107  109 1   
   114  107  113 1   
   115  107  114 1   
   116  108  115 1   
   117  108  116 1   
   118  108  117 1   
   119  109  118 1   
   120  109  119 1   
   121  109  120 1   
   122  121  122 1   
   123  121  127 1   
   124  122  123 1   
   125  122  125 1   
   126  122  128 1   
   127  123  124 2   
   128  123  132 1   
   129  125  126 1   
   130  125  129 1   
   131  125  130 1   
   132  126  131 1   
   133  132  133 1   
   134  132  137 1   
   135  133  134 1   
   136  133  136 1   
   137  133  138 1   
   138  134  135 2   
   139  134  142 1   
   140  136  139 1   
   141  136  140 1   
   142  136  141 1   
   143  142  143 1   
   144  142  147 1   
   145  143  144 1   
   146  143  146 1   
   147  143  148 1   
   148  144  145 2   
   149  144  152 1   
   150  146  149 1   
   151  146  150 1   
   152  146  151 1   
   153  152  153 1   
   154  152  161 1   
   155  153  154 1   
   156  153  156 1   
   157  153  162 1   
   158  154  155 2   
   159  154  167 1   
   160  156  157 1   
   161  156  163 1   
   162  156  164 1   
   163  157  158 1   
   164  157  165 1   
   165  157  166 1   
   166  158  159 1   
   167  158  160 1   
   168  167  168 1   
   169  167  172 1   
   170  168  169 1   
   171  168  170 1   
   172  168  171 1   
   173  174  175 1   
   174  174  176 1   
   175  177  178 1   
   176  177  179 1   
   177  180  181 1   
   178  180  182 1   
@<TRIPOS>SUBSTRUCTURE
     1 MOL         1 TEMP              0 ****  ****    0 ROOT
