@<TRIPOS>MOLECULE
MOL
  179   176     1     0     0
SMALL
resp


@<TRIPOS>ATOM
      1 C1          0.6780    3.7070    6.9470 c3        1 MOL     -0.326974
      2 C2          0.6820    3.4220    5.4640 c         1 MOL      0.740044
      3 O1          1.8040    3.1480    4.9720 o         1 MOL     -0.574605
      4 H1          0.1660    4.6500    7.1340 hc        1 MOL      0.082857
      5 H2          0.1610    2.9040    7.4700 hc        1 MOL      0.082857
      6 H3          1.7050    3.7730    7.3060 hc        1 MOL      0.082857
      7 N1         -0.4120    3.4950    4.6680 n         1 MOL     -0.623488
      8 C3         -0.3430    3.0400    3.2900 c3        1 MOL     -0.028043
      9 C4         -0.1770    4.1940    2.3450 c         1 MOL      0.723246
     10 O2         -0.3930    5.3980    2.7280 o         1 MOL     -0.569734
     11 C5         -1.6710    2.3800    2.9650 c3        1 MOL     -0.137832
     12 C6         -1.6120    1.6650    1.6010 c         1 MOL      0.738794
     13 O3         -0.5380    1.2880    1.0920 o         1 MOL     -0.723950
     14 O4         -2.6070    1.5120    0.8960 o         1 MOL     -0.723950
     15 H4         -1.3020    3.6890    5.0960 hn        1 MOL      0.336092
     16 H5          0.5030    2.3610    3.1070 h1        1 MOL      0.109446
     17 H6         -2.4260    3.1610    3.0380 hc        1 MOL      0.047014
     18 H7         -1.8950    1.6130    3.6960 hc        1 MOL      0.047014
     19 N2          0.3140    3.9360    1.0810 n         1 MOL     -0.525788
     20 C7          0.5970    4.9390    0.0750 c3        1 MOL     -0.150745
     21 C8         -0.6500    5.1800   -0.7540 c         1 MOL      0.571820
     22 O5         -0.6170    6.2210   -1.3570 o         1 MOL     -0.604749
     23 C9          1.8360    4.4430   -0.7310 c3        1 MOL      0.217900
     24 C10         2.3840    5.4590   -1.6910 c3        1 MOL     -0.190466
     25 C11         3.4320    4.8950   -2.5900 c3        1 MOL      0.309453
     26 C12         4.1130    6.0050   -3.3100 c3        1 MOL     -0.076828
     27 N3          5.1090    5.5260   -4.3390 n4        1 MOL     -0.223940
     28 H8          0.3680    2.9500    0.8640 hn        1 MOL      0.232305
     29 H9          0.8890    5.9160    0.4730 h1        1 MOL      0.126406
     30 H10         1.5810    3.5270   -1.2580 hc        1 MOL      0.010868
     31 H11         2.5660    4.1240    0.0150 hc        1 MOL      0.010868
     32 H12         2.8450    6.3040   -1.1810 hc        1 MOL      0.054511
     33 H13         1.6020    5.7610   -2.3780 hc        1 MOL      0.054511
     34 H14         3.0400    4.0880   -3.2060 hc        1 MOL     -0.062461
     35 H15         4.1230    4.4460   -1.8740 hc        1 MOL     -0.062461
     36 H16         4.7610    6.4660   -2.5520 hx        1 MOL      0.083105
     37 H17         3.2680    6.6490   -3.5470 hx        1 MOL      0.083105
     38 H18         4.6670    4.9580   -5.0410 hn        1 MOL      0.292352
     39 H19         5.7140    6.2040   -4.7860 hn        1 MOL      0.292352
     40 H20         5.7400    4.8590   -3.9310 hn        1 MOL      0.292352
     41 N4         -1.7010    4.3790   -0.8330 n         1 MOL     -0.301079
     42 C13        -2.8520    4.6920   -1.7200 c3        1 MOL      0.060765
     43 C14        -4.2310    4.2990   -1.1400 c         1 MOL      0.358570
     44 O6         -5.1950    4.2630   -1.8520 o         1 MOL     -0.475297
     45 C15        -2.6030    4.1160   -3.1370 c3        1 MOL     -0.264146
     46 C16        -2.3220    2.6300   -3.1190 c         1 MOL      0.764285
     47 O7         -1.8510    2.2260   -4.2360 o         1 MOL     -0.704256
     48 O8         -2.3270    1.9240   -2.0960 o         1 MOL     -0.704256
     49 H21        -1.6220    3.4570   -0.4100 hn        1 MOL      0.199716
     50 H22        -2.9400    5.7820   -1.7750 h1        1 MOL      0.102366
     51 H23        -1.7130    4.6030   -3.5360 hc        1 MOL      0.082531
     52 H24        -3.4880    4.2820   -3.7500 hc        1 MOL      0.082531
     53 N5         -4.2220    3.9790    0.1550 n         1 MOL     -0.157400
     54 C17        -5.4530    3.6630    0.9700 c3        1 MOL     -0.086389
     55 C18        -6.1630    2.4340    0.5250 c         1 MOL      0.678615
     56 O9         -7.3470    2.5190    0.6210 o         1 MOL     -0.577788
     57 H25        -3.3990    4.2390    0.6700 hn        1 MOL      0.138557
     58 H26        -6.1980    4.4570    0.9870 h1        1 MOL      0.071057
     59 H27        -5.1100    3.4710    1.9820 h1        1 MOL      0.071057
     60 N6         -5.5110    1.3790   -0.0440 n         1 MOL     -0.423499
     61 C19        -6.2040    0.4130   -0.9580 c3        1 MOL     -0.180473
     62 C20        -6.5760   -0.9070   -0.2830 c         1 MOL      0.419645
     63 O10        -6.8410   -1.9020   -0.9770 o         1 MOL     -0.486108
     64 C21        -5.5730    0.3730   -2.3760 c3        1 MOL     -0.045881
     65 C22        -4.3590   -0.5940   -2.4510 c         1 MOL      0.503500
     66 N7         -3.8670   -1.0250   -3.6260 n         1 MOL     -0.730272
     67 O11        -3.7610   -0.9840   -1.4190 o         1 MOL     -0.401884
     68 H28        -4.5040    1.3360   -0.0670 hn        1 MOL      0.148269
     69 H29        -7.1620    0.9170   -1.1560 h1        1 MOL      0.170752
     70 H30        -5.3160    1.3690   -2.7670 hc        1 MOL      0.084989
     71 H31        -6.2460    0.0640   -3.1810 hc        1 MOL      0.084989
     72 H32        -4.1440   -0.7230   -4.5480 hn        1 MOL      0.348956
     73 H33        -2.9110   -1.3440   -3.6210 hn        1 MOL      0.348956
     74 N8         -6.5400   -0.9610    1.0710 n         1 MOL     -0.307126
     75 C23        -6.8000   -2.2160    1.8220 c3        1 MOL     -0.094565
     76 C24        -5.5450   -2.8910    2.4250 c         1 MOL      0.500468
     77 O12        -5.6730   -3.3490    3.5880 o         1 MOL     -0.559822
     78 H34        -6.4410   -0.1130    1.6170 hn        1 MOL      0.282760
     79 H35        -7.1960   -2.9550    1.1250 h1        1 MOL      0.099393
     80 H36        -7.5540   -1.9760    2.5740 h1        1 MOL      0.099393
     81 N9         -4.4060   -3.0040    1.7620 n         1 MOL     -0.343896
     82 C25        -3.1840   -3.7440    2.0730 c3        1 MOL      0.195408
     83 C26        -1.8420   -2.8830    1.6340 c         1 MOL      0.549082
     84 O13        -2.0130   -1.8110    0.9960 o         1 MOL     -0.666998
     85 C27        -3.2000   -5.1630    1.3970 c3        1 MOL     -0.264056
     86 C28        -3.6810   -5.1830   -0.0300 ca        1 MOL      0.198146
     87 C29        -2.8140   -5.2450   -1.0950 ca        1 MOL     -0.230716
     88 C30        -5.0860   -5.1790   -0.1780 ca        1 MOL     -0.230716
     89 C31        -3.4030   -5.1770   -2.4020 ca        1 MOL     -0.233857
     90 C32        -5.6540   -5.2390   -1.4480 ca        1 MOL     -0.233857
     91 C33        -4.8070   -5.2630   -2.5620 ca        1 MOL      0.343255
     92 O14        -5.3310   -5.4260   -3.8630 oh        1 MOL     -0.579595
     93 H37        -4.4000   -2.5200    0.8680 hn        1 MOL      0.236056
     94 H38        -3.1720   -3.8570    3.1570 h1        1 MOL      0.050186
     95 H39        -3.9370   -5.7060    1.9830 hc        1 MOL      0.078583
     96 H40        -2.2470   -5.7060    1.4440 hc        1 MOL      0.078583
     97 H41        -1.7430   -5.2580   -0.9440 ha        1 MOL      0.167146
     98 H42        -5.7980   -5.0480    0.6210 ha        1 MOL      0.167146
     99 H43        -2.7700   -5.0450   -3.2650 ha        1 MOL      0.141700
    100 H44        -6.7200   -5.3320   -1.5850 ha        1 MOL      0.141700
    101 H45        -6.2760   -5.5960   -3.8730 ho        1 MOL      0.422157
    102 N10        -0.6480   -3.3400    2.0550 n         1 MOL     -0.514870
    103 C34         0.6330   -2.6110    1.9340 c3        1 MOL      0.148703
    104 C35         1.4900   -3.6350    1.1460 c         1 MOL      0.431832
    105 O15         1.5890   -4.8050    1.4880 o         1 MOL     -0.536451
    106 C36         1.3030   -2.3520    3.3230 c3        1 MOL      0.073794
    107 C37         0.3410   -1.8370    4.3930 c3        1 MOL      0.138556
    108 C38         2.4330   -1.3780    3.0970 c3        1 MOL     -0.422156
    109 C39        -0.2020   -0.4090    4.0580 c3        1 MOL     -0.308109
    110 H46        -0.5810   -4.3250    2.2850 hn        1 MOL      0.287708
    111 H47         0.4950   -1.7080    1.3320 h1        1 MOL     -0.013894
    112 H48         1.6470   -3.3160    3.7090 hc        1 MOL      0.015541
    113 H49         0.8920   -1.8740    5.3330 hc        1 MOL     -0.016686
    114 H50        -0.4440   -2.5780    4.5800 hc        1 MOL     -0.016686
    115 H51         2.1420   -0.4650    2.5810 hc        1 MOL      0.104303
    116 H52         2.8710   -1.0590    4.0530 hc        1 MOL      0.104303
    117 H53         3.2500   -1.7460    2.4870 hc        1 MOL      0.104303
    118 H54        -0.7320   -0.5230    3.1080 hc        1 MOL      0.089262
    119 H55        -1.0350   -0.2130    4.7430 hc        1 MOL      0.089262
    120 H56         0.5590    0.3630    4.0090 hc        1 MOL      0.089262
    121 N11         2.1370   -3.1840    0.0860 n         1 MOL     -0.168984
    122 C40         3.1230   -3.9350   -0.7300 c3        1 MOL     -0.238885
    123 C41         4.5680   -3.6370   -0.2420 c         1 MOL      0.601582
    124 O16         4.7410   -2.6520    0.4640 o         1 MOL     -0.401635
    125 C42         2.9660   -3.5100   -2.1950 c3        1 MOL      0.170656
    126 O17         3.0480   -2.1540   -2.4190 oh        1 MOL     -0.576246
    127 H57         1.9150   -2.2350   -0.1830 hn        1 MOL      0.233472
    128 H58         2.8930   -4.9910   -0.5780 h1        1 MOL      0.102056
    129 H59         2.0800   -3.9660   -2.6290 h1        1 MOL      0.023154
    130 H60         3.7700   -3.9940   -2.7400 h1        1 MOL      0.023154
    131 H61         2.2730   -1.7150   -2.0380 ho        1 MOL      0.360917
    132 N12         5.5540   -4.5000   -0.5160 n         1 MOL     -0.505798
    133 C43         6.9700   -4.2670   -0.1250 c3        1 MOL      0.130884
    134 C44         7.4740   -2.8270   -0.4320 c         1 MOL      0.450247
    135 O18         8.0140   -2.1270    0.4630 o         1 MOL     -0.518084
    136 C45         7.9140   -5.3490   -0.7440 c3        1 MOL     -0.361933
    137 H62         5.3250   -5.3310   -1.0490 hn        1 MOL      0.305305
    138 H63         6.9820   -4.2990    0.9670 h1        1 MOL      0.072276
    139 H64         8.9130   -5.2680   -0.3300 hc        1 MOL      0.115603
    140 H65         7.5410   -6.3490   -0.5260 hc        1 MOL      0.115603
    141 H66         7.9540   -5.3230   -1.8350 hc        1 MOL      0.115603
    142 N13         7.2740   -2.3160   -1.6370 n         1 MOL     -0.468655
    143 C46         7.6770   -0.8980   -1.9830 c3        1 MOL      0.271110
    144 C47         7.0030    0.1760   -1.0180 c         1 MOL      0.179035
    145 O19         7.4880    1.3250   -0.9190 o         1 MOL     -0.505746
    146 C48         7.2780   -0.5860   -3.3930 c3        1 MOL     -0.393429
    147 H67         6.8620   -2.9600   -2.3060 hn        1 MOL      0.294147
    148 H68         8.7650   -0.8980   -1.8810 h1        1 MOL      0.075853
    149 H69         6.2330   -0.8810   -3.4860 hc        1 MOL      0.106406
    150 H70         7.3640    0.4950   -3.5290 hc        1 MOL      0.106406
    151 H71         7.8530   -1.1560   -4.1110 hc        1 MOL      0.106406
    152 N14         5.8170   -0.0650   -0.5390 n         1 MOL      0.018817
    153 C49         5.0040    0.9360    0.2270 c3        1 MOL     -0.089047
    154 C50         5.5030    0.9320    1.6770 c         1 MOL      0.361563
    155 O20         5.4770    1.9930    2.3780 o         1 MOL     -0.519701
    156 C51         3.6100    0.5940    0.1670 c3        1 MOL     -0.123223
    157 C52         3.1690    0.9340   -1.2990 c3        1 MOL      0.192129
    158 C53         1.7020    0.5130   -1.4050 c         1 MOL      0.548042
    159 O21         0.8420    1.3590   -1.6800 o         1 MOL     -0.637339
    160 O22         1.2820   -0.5990   -1.2060 o         1 MOL     -0.637339
    161 H72         5.2980   -0.8870   -0.7940 hn        1 MOL      0.136333
    162 H73         5.1960    1.9500   -0.1330 h1        1 MOL      0.106795
    163 H74         3.0180    1.1350    0.9170 hc        1 MOL      0.077916
    164 H75         3.4980   -0.4720    0.3660 hc        1 MOL      0.077916
    165 H76         3.6550    0.3100   -2.0430 hc        1 MOL     -0.082766
    166 H77         3.3510    1.9760   -1.5520 hc        1 MOL     -0.082766
    167 N15         6.1980   -0.1500    2.1340 n         1 MOL     -0.026896
    168 C54         6.9110   -0.2540    3.4170 c3        1 MOL     -0.303946
    169 H78         7.0350    0.7400    3.8450 h1        1 MOL      0.116096
    170 H79         6.3360   -0.8760    4.1040 h1        1 MOL      0.116096
    171 H80         7.8910   -0.7040    3.2540 h1        1 MOL      0.116096
    172 H81         6.0150   -1.0340    1.6810 hn        1 MOL      0.137982
    173 Ca1        -1.2730   -0.0060   -0.8670 Ca        1 MOL      1.778008
    174 O23        -1.3070   -2.5480   -1.7680 oh        1 MOL     -0.855304
    175 H82        -0.7410   -3.0290   -2.3730 ho        1 MOL      0.389484
    176 H83        -2.1950   -2.7950   -2.0230 ho        1 MOL      0.389484
    177 O24        -1.0530   -0.2170   -3.5970 oh        1 MOL     -0.855304
    178 H84        -0.5360   -0.7590   -4.1810 ho        1 MOL      0.389484
    179 H85        -1.0620    0.6550   -3.9990 ho        1 MOL      0.389484
@<TRIPOS>BOND
     1    1    2 1   
     2    1    4 1   
     3    1    5 1   
     4    1    6 1   
     5    2    3 2   
     6    2    7 1   
     7    7    8 1   
     8    7   15 1   
     9    8    9 1   
    10    8   11 1   
    11    8   16 1   
    12    9   10 2   
    13    9   19 1   
    14   11   12 1   
    15   11   17 1   
    16   11   18 1   
    17   12   13 1   
    18   12   14 1   
    19   19   20 1   
    20   19   28 1   
    21   20   21 1   
    22   20   23 1   
    23   20   29 1   
    24   21   22 2   
    25   21   41 1   
    26   23   24 1   
    27   23   30 1   
    28   23   31 1   
    29   24   25 1   
    30   24   32 1   
    31   24   33 1   
    32   25   26 1   
    33   25   34 1   
    34   25   35 1   
    35   26   27 1   
    36   26   36 1   
    37   26   37 1   
    38   27   38 1   
    39   27   39 1   
    40   27   40 1   
    41   41   42 1   
    42   41   49 1   
    43   42   43 1   
    44   42   45 1   
    45   42   50 1   
    46   43   44 2   
    47   43   53 1   
    48   45   46 1   
    49   45   51 1   
    50   45   52 1   
    51   46   47 1   
    52   46   48 1   
    53   53   54 1   
    54   53   57 1   
    55   54   55 1   
    56   54   58 1   
    57   54   59 1   
    58   55   56 2   
    59   55   60 1   
    60   60   61 1   
    61   60   68 1   
    62   61   62 1   
    63   61   64 1   
    64   61   69 1   
    65   62   63 2   
    66   62   74 1   
    67   64   65 1   
    68   64   70 1   
    69   64   71 1   
    70   65   66 1   
    71   65   67 2   
    72   66   72 1   
    73   66   73 1   
    74   74   75 1   
    75   74   78 1   
    76   75   76 1   
    77   75   79 1   
    78   75   80 1   
    79   76   77 2   
    80   76   81 1   
    81   81   82 1   
    82   81   93 1   
    83   82   83 1   
    84   82   85 1   
    85   82   94 1   
    86   83   84 2   
    87   83  102 1   
    88   85   86 1   
    89   85   95 1   
    90   85   96 1   
    91   86   87 ar  
    92   86   88 ar  
    93   87   89 ar  
    94   87   97 1   
    95   88   90 ar  
    96   88   98 1   
    97   89   91 ar  
    98   89   99 1   
    99   90   91 ar  
   100   90  100 1   
   101   91   92 1   
   102   92  101 1   
   103  102  103 1   
   104  102  110 1   
   105  103  104 1   
   106  103  106 1   
   107  103  111 1   
   108  104  105 2   
   109  104  121 1   
   110  106  107 1   
   111  106  108 1   
   112  106  112 1   
   113  107  109 1   
   114  107  113 1   
   115  107  114 1   
   116  108  115 1   
   117  108  116 1   
   118  108  117 1   
   119  109  118 1   
   120  109  119 1   
   121  109  120 1   
   122  121  122 1   
   123  121  127 1   
   124  122  123 1   
   125  122  125 1   
   126  122  128 1   
   127  123  124 2   
   128  123  132 1   
   129  125  126 1   
   130  125  129 1   
   131  125  130 1   
   132  126  131 1   
   133  132  133 1   
   134  132  137 1   
   135  133  134 1   
   136  133  136 1   
   137  133  138 1   
   138  134  135 2   
   139  134  142 1   
   140  136  139 1   
   141  136  140 1   
   142  136  141 1   
   143  142  143 1   
   144  142  147 1   
   145  143  144 1   
   146  143  146 1   
   147  143  148 1   
   148  144  145 2   
   149  144  152 1   
   150  146  149 1   
   151  146  150 1   
   152  146  151 1   
   153  152  153 1   
   154  152  161 1   
   155  153  154 1   
   156  153  156 1   
   157  153  162 1   
   158  154  155 2   
   159  154  167 1   
   160  156  157 1   
   161  156  163 1   
   162  156  164 1   
   163  157  158 1   
   164  157  165 1   
   165  157  166 1   
   166  158  159 1   
   167  158  160 1   
   168  167  168 1   
   169  167  172 1   
   170  168  169 1   
   171  168  170 1   
   172  168  171 1   
   173  174  175 1   
   174  174  176 1   
   175  177  178 1   
   176  177  179 1   
@<TRIPOS>SUBSTRUCTURE
     1 MOL         1 TEMP              0 ****  ****    0 ROOT
