@<TRIPOS>MOLECULE
MOL
  189   185     1     0     0
SMALL
resp


@<TRIPOS>ATOM
      1 C1         -0.4150    3.4910    5.2080 c3        1 MOL     -0.373531
      2 C2         -0.8210    3.0390    3.7730 c         1 MOL      0.604855
      3 O1         -0.1210    3.2750    2.8250 o         1 MOL     -0.611107
      4 H1         -0.8470    4.4700    5.4150 hc        1 MOL      0.099668
      5 H2         -0.7860    2.7700    5.9360 hc        1 MOL      0.099668
      6 H3          0.6710    3.5510    5.2770 hc        1 MOL      0.099668
      7 N1         -2.0280    2.5460    3.5810 n         1 MOL     -0.454873
      8 C3         -2.4290    1.9210    2.3390 c3        1 MOL      0.190389
      9 C4         -2.7670    3.0500    1.3700 c         1 MOL      0.161651
     10 O2         -3.8240    3.5710    1.5530 o         1 MOL     -0.467427
     11 C5         -3.6020    1.0020    2.5520 c3        1 MOL     -0.107138
     12 C6         -4.0900    0.3010    1.2650 c         1 MOL      0.748077
     13 O3         -3.2920    0.0540    0.3790 o         1 MOL     -0.658910
     14 O4         -5.3350    0.1270    1.2190 o         1 MOL     -0.658910
     15 H4         -2.5710    2.4470    4.4230 hn        1 MOL      0.285716
     16 H5         -1.5800    1.3080    2.0110 h1        1 MOL     -0.010246
     17 H6         -4.4660    1.4540    3.0420 hc        1 MOL      0.014072
     18 H7         -3.3690    0.1720    3.2200 hc        1 MOL      0.014072
     19 N2         -1.8820    3.4210    0.4210 n         1 MOL     -0.051417
     20 C7         -2.1190    4.5590   -0.4030 c3        1 MOL      0.037833
     21 C8         -3.1690    4.4350   -1.5000 c         1 MOL      0.375616
     22 O5         -3.8130    5.4690   -1.7710 o         1 MOL     -0.553383
     23 C9         -0.8110    5.0010   -1.0290 c3        1 MOL     -0.057576
     24 C10         0.3660    5.3540   -0.1300 c3        1 MOL      0.049614
     25 C11         0.2060    6.6730    0.7120 c3        1 MOL     -0.260648
     26 C12        -0.3040    6.1960    2.0810 c3        1 MOL      0.088971
     27 N3         -0.5390    7.2900    2.9830 n4        1 MOL     -0.444424
     28 H8         -1.1210    2.8070    0.1800 hn        1 MOL      0.388719
     29 H9         -2.4410    5.3530    0.2800 h1        1 MOL      0.008661
     30 H10        -1.0620    5.8850   -1.6140 hc        1 MOL      0.017186
     31 H11        -0.5290    4.1930   -1.7120 hc        1 MOL      0.017186
     32 H12         1.1910    5.5880   -0.7910 hc        1 MOL      0.037032
     33 H13         0.4720    4.4590    0.4930 hc        1 MOL      0.037032
     34 H14        -0.5110    7.2770    0.1520 hc        1 MOL      0.088672
     35 H15         1.1900    7.1440    0.8240 hc        1 MOL      0.088672
     36 H16         0.4710    5.5340    2.4770 hx        1 MOL      0.122965
     37 H17        -1.1830    5.5640    1.9600 hx        1 MOL      0.122965
     38 H18        -1.1370    7.9840    2.5550 hn        1 MOL      0.335307
     39 H19        -0.9650    7.0850    3.8810 hn        1 MOL      0.335307
     40 H20         0.3130    7.8230    3.1230 hn        1 MOL      0.335307
     41 N4         -3.4890    3.2140   -2.0400 n         1 MOL     -0.069938
     42 C13        -4.4710    3.0850   -3.1130 c3        1 MOL     -0.042047
     43 C14        -5.7670    2.3400   -2.7890 c         1 MOL      0.475203
     44 O6         -6.6140    2.0900   -3.6180 o         1 MOL     -0.502839
     45 C15        -3.7140    2.5830   -4.3210 c3        1 MOL     -0.243630
     46 C16        -2.7710    1.4050   -4.0370 c         1 MOL      0.837734
     47 O7         -1.9040    1.1070   -4.8880 o         1 MOL     -0.731766
     48 O8         -2.8250    0.8120   -2.9220 o         1 MOL     -0.731766
     49 H21        -3.0010    2.3600   -1.8210 hn        1 MOL      0.047427
     50 H22        -4.9100    4.0420   -3.3710 h1        1 MOL      0.104355
     51 H23        -3.0130    3.3500   -4.6580 hc        1 MOL      0.061607
     52 H24        -4.4290    2.2480   -5.0780 hc        1 MOL      0.061607
     53 N5         -5.9570    2.0440   -1.5100 n         1 MOL     -0.307316
     54 C17        -7.2430    1.5600   -0.9280 c3        1 MOL     -0.152469
     55 C18        -7.5580    0.1410   -1.3740 c         1 MOL      0.497948
     56 O9         -8.7300   -0.1870   -1.7160 o         1 MOL     -0.595620
     57 H25        -5.1980    2.2430   -0.8830 hn        1 MOL      0.229155
     58 H26        -8.0880    2.2100   -1.1730 h1        1 MOL      0.109518
     59 H27        -7.1520    1.4760    0.1510 h1        1 MOL      0.109518
     60 N6         -6.6040   -0.7470   -1.4020 n         1 MOL     -0.133731
     61 C19        -6.8020   -2.1590   -1.8100 c3        1 MOL     -0.061173
     62 C20        -6.8120   -3.0260   -0.4830 c         1 MOL      0.394876
     63 O10        -7.1330   -4.1570   -0.4960 o         1 MOL     -0.524997
     64 C21        -5.7200   -2.6580   -2.7690 c3        1 MOL     -0.100862
     65 C22        -4.3120   -2.4170   -2.2940 c         1 MOL      0.742727
     66 O11        -4.0140   -2.4290   -1.1280 o         1 MOL     -0.706500
     67 O12        -3.4590   -2.2450   -3.1100 o         1 MOL     -0.706500
     68 H28        -5.6980   -0.4710   -1.0550 hn        1 MOL      0.095947
     69 H29        -7.7480   -2.3330   -2.3340 h1        1 MOL      0.133036
     70 H30        -5.8350   -2.2550   -3.7770 hc        1 MOL      0.047060
     71 H31        -5.8320   -3.7210   -2.9590 hc        1 MOL      0.047060
     72 N7         -6.3740   -2.5560    0.7260 n         1 MOL     -0.153519
     73 C23        -6.3970   -3.1980    2.0470 c3        1 MOL     -0.058048
     74 C24        -5.0700   -3.8230    2.3890 c         1 MOL      0.463312
     75 O13        -5.0550   -4.6910    3.2640 o         1 MOL     -0.553476
     76 H32        -6.0390   -1.6040    0.7690 hn        1 MOL      0.119327
     77 H33        -7.1970   -3.9360    2.0880 h1        1 MOL      0.079690
     78 H34        -6.6940   -2.4830    2.8150 h1        1 MOL      0.079690
     79 N8         -3.9080   -3.4810    1.7870 n         1 MOL     -0.079763
     80 C25        -2.6140   -4.1590    1.9030 c3        1 MOL     -0.440693
     81 C26        -1.4290   -3.2550    1.7000 c         1 MOL      0.800169
     82 O14        -1.4140   -2.3860    0.8060 o         1 MOL     -0.714487
     83 C27        -2.4090   -5.3410    0.9150 c3        1 MOL      0.468959
     84 C28        -3.3380   -6.5520    1.1790 c3        1 MOL     -0.533178
     85 O15        -2.6610   -4.9020   -0.4320 oh        1 MOL     -0.648290
     86 H35        -3.9290   -2.7070    1.1330 hn        1 MOL      0.142344
     87 H36        -2.5330   -4.5500    2.9230 h1        1 MOL      0.142461
     88 H37        -1.4300   -5.8070    0.9170 h1        1 MOL      0.018393
     89 H38        -3.2580   -4.1490   -0.4750 ho        1 MOL      0.433797
     90 H39        -4.4010   -6.3720    0.9960 hc        1 MOL      0.144800
     91 H40        -2.9950   -7.3180    0.4750 hc        1 MOL      0.144800
     92 H41        -3.2800   -6.9850    2.1810 hc        1 MOL      0.144800
     93 N9         -0.3880   -3.3270    2.5860 n         1 MOL     -0.699501
     94 C29         0.7080   -2.3570    2.5830 c3        1 MOL      0.099070
     95 C30         1.9560   -2.9590    1.8330 c         1 MOL      0.447022
     96 O16         2.4530   -4.0220    2.3170 o         1 MOL     -0.550244
     97 C31         1.1000   -1.9100    4.0180 c3        1 MOL      0.275489
     98 C32        -0.0040   -1.6840    5.0890 c3        1 MOL      0.163722
     99 C33         1.8100   -0.6250    3.8420 c3        1 MOL     -0.754290
    100 C34         0.4570   -1.8300    6.5330 c3        1 MOL     -0.145207
    101 H42        -0.3760   -4.0970    3.2370 hn        1 MOL      0.331218
    102 H43         0.3740   -1.5630    1.9270 h1        1 MOL      0.109518
    103 H44         1.6880   -2.7520    4.3910 hc        1 MOL     -0.008474
    104 H45        -0.8190   -2.3980    5.0390 hc        1 MOL     -0.029765
    105 H46        -0.5670   -0.7600    4.9380 hc        1 MOL     -0.029765
    106 H47         1.0850    0.0910    3.4390 hc        1 MOL      0.171892
    107 H48         2.2430   -0.2290    4.7500 hc        1 MOL      0.171892
    108 H49         2.6000   -0.6210    3.0940 hc        1 MOL      0.171892
    109 H50         0.5380   -2.8950    6.7630 hc        1 MOL      0.027337
    110 H51         1.3860   -1.3300    6.8010 hc        1 MOL      0.027337
    111 H52        -0.3070   -1.4590    7.2210 hc        1 MOL      0.027337
    112 N10         2.5030   -2.2130    0.8790 n         1 MOL     -0.198677
    113 C35         3.7890   -2.4980    0.2540 c3        1 MOL     -0.042925
    114 C36         5.0020   -1.9840    0.9940 c         1 MOL      0.358789
    115 O17         4.9300   -0.9980    1.7600 o         1 MOL     -0.340726
    116 C37         3.8070   -1.9720   -1.2260 c3        1 MOL      0.240779
    117 C38         2.7010   -2.4490   -2.1230 c3        1 MOL     -0.100926
    118 O18         3.5260   -0.6170   -1.1210 oh        1 MOL     -0.378805
    119 H53         2.0000   -1.3800    0.6120 hn        1 MOL      0.299588
    120 H54         3.7950   -3.5810    0.1910 h1        1 MOL      0.060045
    121 H55         4.7400   -2.1820   -1.7400 h1        1 MOL     -0.004498
    122 H56         2.6330   -0.4870   -0.7860 ho        1 MOL      0.321749
    123 H57         2.9440   -3.5070   -2.2380 hc        1 MOL      0.019703
    124 H58         1.7530   -2.3540   -1.6130 hc        1 MOL      0.019703
    125 H59         2.7580   -1.9360   -3.0890 hc        1 MOL      0.019703
    126 N11         6.1550   -2.4080    0.5030 n         1 MOL     -0.332914
    127 C39         7.3860   -1.6030    0.7860 c3        1 MOL      0.028930
    128 C40         7.2570   -0.2050    0.2040 c         1 MOL      0.216525
    129 O19         7.5830    0.7680    0.8370 o         1 MOL     -0.417783
    130 C41         8.6630   -2.2010    0.2170 c3        1 MOL      0.320753
    131 C42         9.1670   -3.4920    0.7530 c3        1 MOL     -0.379856
    132 O20         8.4710   -2.5120   -1.1610 oh        1 MOL     -0.696675
    133 H60         6.2200   -3.3280    0.0940 hn        1 MOL      0.292858
    134 H61         7.5400   -1.3790    1.8430 h1        1 MOL      0.105582
    135 H62         9.4260   -1.4210    0.3290 h1        1 MOL      0.046822
    136 H63         9.3490   -2.6680   -1.5200 ho        1 MOL      0.381617
    137 H64         8.3400   -4.2140    0.7600 hc        1 MOL      0.108440
    138 H65         9.9930   -3.9180    0.1770 hc        1 MOL      0.108440
    139 H66         9.4710   -3.4080    1.7970 hc        1 MOL      0.108440
    140 N12         6.7500   -0.1010   -1.0380 n         1 MOL     -0.076272
    141 C43         6.5840    1.2020   -1.7940 c3        1 MOL      0.054806
    142 C44         5.8020    2.2650   -1.0080 c         1 MOL      0.282465
    143 O21         6.2420    3.3950   -1.0090 o         1 MOL     -0.523299
    144 C45         5.8450    0.9490   -3.0510 c3        1 MOL      0.036285
    145 C46         6.7060    0.3970   -4.1970 c3        1 MOL     -0.210766
    146 C47         7.4460   -0.9290   -3.9750 c3        1 MOL      0.021238
    147 C48         8.0470   -1.4110   -5.2390 c3        1 MOL     -0.019902
    148 N13         8.6680   -2.6500   -4.9330 n4        1 MOL     -0.155443
    149 H67         6.6200   -0.9740   -1.5200 hn        1 MOL      0.127573
    150 H68         7.5100    1.6730   -2.1260 h1        1 MOL      0.046607
    151 H69         5.4000    1.8760   -3.4300 hc        1 MOL      0.065971
    152 H70         5.0830    0.2080   -2.8010 hc        1 MOL      0.065971
    153 H71         7.3910    1.2150   -4.4270 hc        1 MOL      0.060382
    154 H72         5.9910    0.2940   -5.0180 hc        1 MOL      0.060382
    155 H73         6.6710   -1.6080   -3.6130 hc        1 MOL      0.052933
    156 H74         8.1930   -0.7160   -3.2010 hc        1 MOL      0.052933
    157 H75         8.9000   -0.8330   -5.5880 hx        1 MOL      0.089477
    158 H76         7.2830   -1.5270   -6.0060 hx        1 MOL      0.089477
    159 H77         9.2230   -2.9500   -5.7200 hn        1 MOL      0.252310
    160 H78         9.1900   -2.5920   -4.0760 hn        1 MOL      0.252310
    161 H79         8.0120   -3.4200   -4.8210 hn        1 MOL      0.252310
    162 N14         4.8460    1.7920   -0.2450 n         1 MOL      0.611219
    163 C49         3.9220    2.6750    0.4590 c3        1 MOL     -0.297503
    164 C50         4.4440    2.8850    1.9460 c         1 MOL      0.564988
    165 O22         4.3090    3.9720    2.4660 o         1 MOL     -0.554037
    166 C51         2.5750    2.0180    0.4880 c3        1 MOL      0.014693
    167 C52         1.7790    1.9380   -0.8470 c3        1 MOL      0.115868
    168 C53         0.6630    0.8900   -0.5980 c         1 MOL      0.564040
    169 O23        -0.4940    1.3090   -0.7400 o         1 MOL     -0.715072
    170 O24         0.9370   -0.3310   -0.4550 o         1 MOL     -0.715072
    171 H80         4.5940    0.8140   -0.2300 hn        1 MOL     -0.770416
    172 H81         3.8620    3.6340   -0.0540 h1        1 MOL      0.084607
    173 H82         1.9060    2.5750    1.1380 hc        1 MOL      0.018466
    174 H83         2.6720    1.0140    0.9050 hc        1 MOL      0.018466
    175 H84         2.4090    1.6790   -1.6970 hc        1 MOL     -0.033816
    176 H85         1.3090    2.8740   -1.1450 hc        1 MOL     -0.033816
    177 N15         4.8550    1.8320    2.6790 n         1 MOL     -0.299515
    178 C54         5.6560    2.0780    3.8820 c3        1 MOL     -0.080205
    179 H86         5.6250    3.1390    4.1290 h1        1 MOL      0.058969
    180 H87         5.2510    1.5000    4.7140 h1        1 MOL      0.058969
    181 H88         6.6880    1.7780    3.6990 h1        1 MOL      0.058969
    182 H89         4.8800    0.8960    2.2950 hn        1 MOL      0.280842
    183 Ca1        -1.7200   -0.9360   -1.3890 Ca        1 MOL      1.786889
    184 O25        -0.1980   -0.5860   -3.6770 oh        1 MOL     -0.816903
    185 H90         0.6520   -0.5890   -4.1230 ho        1 MOL      0.391840
    186 H91        -0.7080    0.0850   -4.1250 ho        1 MOL      0.391840
    187 O26        -0.7990   -3.2610   -2.1550 oh        1 MOL     -0.816903
    188 H92        -1.1320   -3.9050   -1.5390 ho        1 MOL      0.391840
    189 H93        -0.6720   -3.7520   -2.9760 ho        1 MOL      0.391840
@<TRIPOS>BOND
     1    1    2 1   
     2    1    4 1   
     3    1    5 1   
     4    1    6 1   
     5    2    3 2   
     6    2    7 1   
     7    7    8 1   
     8    7   15 1   
     9    8    9 1   
    10    8   11 1   
    11    8   16 1   
    12    9   10 2   
    13    9   19 1   
    14   11   12 1   
    15   11   17 1   
    16   11   18 1   
    17   12   13 1   
    18   12   14 1   
    19   19   20 1   
    20   19   28 1   
    21   20   21 1   
    22   20   23 1   
    23   20   29 1   
    24   21   22 2   
    25   21   41 1   
    26   23   24 1   
    27   23   30 1   
    28   23   31 1   
    29   24   25 1   
    30   24   32 1   
    31   24   33 1   
    32   25   26 1   
    33   25   34 1   
    34   25   35 1   
    35   26   27 1   
    36   26   36 1   
    37   26   37 1   
    38   27   38 1   
    39   27   39 1   
    40   27   40 1   
    41   41   42 1   
    42   41   49 1   
    43   42   43 1   
    44   42   45 1   
    45   42   50 1   
    46   43   44 2   
    47   43   53 1   
    48   45   46 1   
    49   45   51 1   
    50   45   52 1   
    51   46   47 1   
    52   46   48 1   
    53   53   54 1   
    54   53   57 1   
    55   54   55 1   
    56   54   58 1   
    57   54   59 1   
    58   55   56 2   
    59   55   60 1   
    60   60   61 1   
    61   60   68 1   
    62   61   62 1   
    63   61   64 1   
    64   61   69 1   
    65   62   63 2   
    66   62   72 1   
    67   64   65 1   
    68   64   70 1   
    69   64   71 1   
    70   65   66 1   
    71   65   67 1   
    72   72   73 1   
    73   72   76 1   
    74   73   74 1   
    75   73   77 1   
    76   73   78 1   
    77   74   75 2   
    78   74   79 1   
    79   79   80 1   
    80   79   86 1   
    81   80   81 1   
    82   80   83 1   
    83   80   87 1   
    84   81   82 2   
    85   81   93 1   
    86   83   84 1   
    87   83   85 1   
    88   83   88 1   
    89   84   90 1   
    90   84   91 1   
    91   84   92 1   
    92   85   89 1   
    93   93   94 1   
    94   93  101 1   
    95   94   95 1   
    96   94   97 1   
    97   94  102 1   
    98   95   96 2   
    99   95  112 1   
   100   97   98 1   
   101   97   99 1   
   102   97  103 1   
   103   98  100 1   
   104   98  104 1   
   105   98  105 1   
   106   99  106 1   
   107   99  107 1   
   108   99  108 1   
   109  100  109 1   
   110  100  110 1   
   111  100  111 1   
   112  112  113 1   
   113  112  119 1   
   114  113  114 1   
   115  113  116 1   
   116  113  120 1   
   117  114  115 2   
   118  114  126 1   
   119  116  117 1   
   120  116  118 1   
   121  116  121 1   
   122  117  123 1   
   123  117  124 1   
   124  117  125 1   
   125  118  122 1   
   126  126  127 1   
   127  126  133 1   
   128  127  128 1   
   129  127  130 1   
   130  127  134 1   
   131  128  129 2   
   132  128  140 1   
   133  130  131 1   
   134  130  132 1   
   135  130  135 1   
   136  131  137 1   
   137  131  138 1   
   138  131  139 1   
   139  132  136 1   
   140  140  141 1   
   141  140  149 1   
   142  141  142 1   
   143  141  144 1   
   144  141  150 1   
   145  142  143 2   
   146  142  162 1   
   147  144  145 1   
   148  144  151 1   
   149  144  152 1   
   150  145  146 1   
   151  145  153 1   
   152  145  154 1   
   153  146  147 1   
   154  146  155 1   
   155  146  156 1   
   156  147  148 1   
   157  147  157 1   
   158  147  158 1   
   159  148  159 1   
   160  148  160 1   
   161  148  161 1   
   162  162  163 1   
   163  162  171 1   
   164  163  164 1   
   165  163  166 1   
   166  163  172 1   
   167  164  165 2   
   168  164  177 1   
   169  166  167 1   
   170  166  173 1   
   171  166  174 1   
   172  167  168 1   
   173  167  175 1   
   174  167  176 1   
   175  168  169 1   
   176  168  170 1   
   177  177  178 1   
   178  177  182 1   
   179  178  179 1   
   180  178  180 1   
   181  178  181 1   
   182  184  185 1   
   183  184  186 1   
   184  187  188 1   
   185  187  189 1   
@<TRIPOS>SUBSTRUCTURE
     1 MOL         1 TEMP              0 ****  ****    0 ROOT
