@<TRIPOS>MOLECULE
MOL
  175   173     1     0     0
SMALL
resp


@<TRIPOS>ATOM
      1 C1          0.4400    4.3520    5.4410 c3        1 MOL     -0.371839
      2 C2         -0.1920    3.9960    4.0400 c         1 MOL      0.752523
      3 O1          0.5840    4.0060    3.0650 o         1 MOL     -0.573446
      4 H1          1.4640    3.9810    5.4820 hc        1 MOL      0.087366
      5 H2          0.4410    5.4340    5.5750 hc        1 MOL      0.087366
      6 H3         -0.1470    3.8870    6.2330 hc        1 MOL      0.087366
      7 N1         -1.4790    3.7880    3.9480 n         1 MOL     -0.677540
      8 C3         -2.1200    3.4530    2.6510 c3        1 MOL      0.012849
      9 C4         -2.2660    4.6020    1.6580 c         1 MOL      0.671458
     10 O2         -2.6450    5.7150    2.0760 o         1 MOL     -0.600770
     11 C5         -3.5200    2.9930    2.9990 c3        1 MOL     -0.126413
     12 C6         -4.2990    2.5510    1.8430 c         1 MOL      0.615900
     13 O3         -5.5710    2.7140    1.8480 o         1 MOL     -0.645377
     14 O4         -3.7280    2.0170    0.8290 o         1 MOL     -0.645377
     15 H4         -2.1500    3.9840    4.6750 hn        1 MOL      0.358452
     16 H5         -1.5590    2.6620    2.1590 h1        1 MOL      0.114618
     17 H6         -4.0960    3.7650    3.5080 hc        1 MOL      0.034933
     18 H7         -3.5630    2.1800    3.7210 hc        1 MOL      0.034933
     19 N2         -2.0230    4.3450    0.3950 n         1 MOL     -0.450931
     20 C7         -2.3320    5.3210   -0.6810 c3        1 MOL      0.198064
     21 C8         -3.5350    5.0170   -1.5550 c         1 MOL      0.469394
     22 O5         -4.1110    5.9030   -2.1760 o         1 MOL     -0.590899
     23 C9         -1.0180    5.2130   -1.4770 c3        1 MOL     -0.317188
     24 H8         -1.6870    3.4370    0.1170 hn        1 MOL      0.237332
     25 H9         -2.4440    6.2840   -0.1840 h1        1 MOL      0.031299
     26 H10        -1.0610    5.9030   -2.3210 hc        1 MOL      0.083949
     27 H11        -0.1470    5.4480   -0.8710 hc        1 MOL      0.083949
     28 H12        -0.8430    4.2350   -1.9210 hc        1 MOL      0.083949
     29 N3         -4.0000    3.7900   -1.5490 n         1 MOL     -0.203439
     30 C10        -4.7770    3.3150   -2.7890 c3        1 MOL     -0.086460
     31 C11        -5.9540    2.4570   -2.3570 c         1 MOL      0.376783
     32 O6         -6.8450    2.1020   -3.2110 o         1 MOL     -0.581649
     33 C12        -3.8270    2.6420   -3.7840 c3        1 MOL      0.056034
     34 C13        -2.9620    1.5520   -3.1100 c         1 MOL      0.604558
     35 O7         -1.8380    1.3010   -3.5610 o         1 MOL     -0.670086
     36 O8         -3.4070    0.9400   -2.0590 o         1 MOL     -0.670086
     37 H13        -3.7480    3.1050   -0.8530 hn        1 MOL      0.146665
     38 H14        -5.2570    4.1050   -3.3730 h1        1 MOL      0.112042
     39 H15        -3.1780    3.3200   -4.3360 hc        1 MOL     -0.005622
     40 H16        -4.3720    2.1910   -4.6180 hc        1 MOL     -0.005622
     41 N4         -6.1430    2.2050   -1.1060 n         1 MOL     -0.038970
     42 C14        -7.2960    1.5030   -0.5740 c3        1 MOL     -0.391600
     43 C15        -7.2820   -0.0010   -0.8160 c         1 MOL      0.702934
     44 O9         -8.2440   -0.6980   -0.4290 o         1 MOL     -0.657321
     45 H17        -5.5270    2.5200   -0.3630 hn        1 MOL      0.125303
     46 H18        -8.1880    1.9070   -1.0490 h1        1 MOL      0.161287
     47 H19        -7.2230    1.7080    0.4990 h1        1 MOL      0.161287
     48 N5         -6.3420   -0.5640   -1.5300 n         1 MOL     -0.566986
     49 C16        -6.3440   -1.9220   -2.0570 c3        1 MOL      0.504240
     50 C17        -6.1870   -3.0380   -0.9750 c         1 MOL      0.199183
     51 O10        -5.9470   -4.2010   -1.3060 o         1 MOL     -0.476548
     52 C18        -5.2490   -2.1630   -3.1590 c3        1 MOL     -0.474749
     53 C19        -3.8160   -2.1750   -2.6320 c         1 MOL      0.842824
     54 N6         -2.8450   -2.2360   -3.4830 n         1 MOL     -0.671390
     55 O11        -3.4840   -2.0470   -1.4710 o         1 MOL     -0.728814
     56 H20        -5.6950    0.0810   -1.9560 hn        1 MOL      0.241359
     57 H21        -7.3280   -2.1180   -2.4880 h1        1 MOL      0.024359
     58 H22        -5.3190   -1.3980   -3.9370 hc        1 MOL      0.102781
     59 H23        -5.3650   -3.1290   -3.6510 hc        1 MOL      0.102781
     60 H24        -3.0720   -2.0590   -4.4500 hn        1 MOL      0.322898
     61 H25        -1.8990   -2.0800   -3.1870 hn        1 MOL      0.322898
     62 N7         -6.3680   -2.7960    0.3410 n         1 MOL     -0.117199
     63 C20        -6.3740   -3.8460    1.4150 c3        1 MOL     -0.285732
     64 C21        -5.0740   -4.4540    1.8550 c         1 MOL      0.472314
     65 O12        -5.0350   -5.3910    2.6660 o         1 MOL     -0.569740
     66 H26        -6.6510   -1.8680    0.6190 hn        1 MOL      0.210104
     67 H27        -7.0320   -4.6090    0.9960 h1        1 MOL      0.136661
     68 H28        -6.8310   -3.5300    2.3580 h1        1 MOL      0.136661
     69 N8         -3.9460   -3.9830    1.3000 n         1 MOL     -0.081323
     70 C22        -2.5710   -4.4920    1.4820 c3        1 MOL     -0.270034
     71 C23        -1.5560   -3.4060    1.5970 c         1 MOL      0.540321
     72 O13        -1.6980   -2.4220    0.9540 o         1 MOL     -0.404688
     73 C24        -2.2450   -5.4650    0.3170 c3        1 MOL      0.693963
     74 C25        -3.2720   -6.5940    0.0470 c3        1 MOL     -0.381472
     75 O14        -2.0400   -4.7490   -0.8820 oh        1 MOL     -0.604104
     76 H29        -4.0000   -3.1630    0.7210 hn        1 MOL      0.175894
     77 H30        -2.4800   -5.1370    2.3530 h1        1 MOL      0.066834
     78 H31        -1.3120   -6.0040    0.4980 h1        1 MOL     -0.109727
     79 H32        -1.9670   -3.8350   -0.6140 ho        1 MOL      0.289865
     80 H33        -4.1990   -6.2730   -0.4110 hc        1 MOL      0.080544
     81 H34        -2.7950   -7.3770   -0.5520 hc        1 MOL      0.080544
     82 H35        -3.4430   -6.9500    1.0650 hc        1 MOL      0.080544
     83 N9         -0.4220   -3.7360    2.3190 n         1 MOL     -0.503582
     84 C26         0.8280   -2.9440    2.1420 c3        1 MOL      0.062137
     85 C27         1.5700   -3.1380    0.7690 c         1 MOL      0.580711
     86 O15         1.9970   -4.2570    0.5190 o         1 MOL     -0.579531
     87 C28         1.7800   -3.0020    3.3640 c3        1 MOL      0.007708
     88 C29         1.3380   -2.0490    4.4770 c3        1 MOL      0.049995
     89 C30         3.2290   -2.5540    2.9950 c3        1 MOL     -0.241158
     90 C31         1.9190   -2.0840    5.8780 c3        1 MOL     -0.092449
     91 H36        -0.3500   -4.6930    2.6370 hn        1 MOL      0.290233
     92 H37         0.4550   -1.9160    2.0970 h1        1 MOL      0.080959
     93 H38         1.7520   -4.0260    3.7550 hc        1 MOL      0.032035
     94 H39         0.2590   -2.2250    4.5890 hc        1 MOL     -0.013641
     95 H40         1.3900   -1.0330    4.0860 hc        1 MOL     -0.013641
     96 H41         3.6730   -3.2500    2.2910 hc        1 MOL      0.058473
     97 H42         3.0700   -1.5880    2.5250 hc        1 MOL      0.058473
     98 H43         3.9810   -2.4120    3.7820 hc        1 MOL      0.058473
     99 H44         1.4060   -1.5060    6.6450 hc        1 MOL      0.017823
    100 H45         1.8410   -3.1250    6.1930 hc        1 MOL      0.017823
    101 H46         2.9340   -1.6920    5.9830 hc        1 MOL      0.017823
    102 N10         1.7910   -2.0810   -0.0270 n         1 MOL     -0.541334
    103 C32         2.6170   -2.1000   -1.2640 c3        1 MOL      0.249284
    104 C33         4.0920   -1.5670   -1.0200 c         1 MOL      0.352412
    105 O16         4.2170   -0.7120   -0.0960 o         1 MOL     -0.264786
    106 C34         1.8620   -1.4150   -2.4730 c3        1 MOL     -0.480840
    107 C35         0.3470   -1.7060   -2.5710 c         1 MOL      0.894585
    108 O17        -0.4710   -1.1400   -1.7660 o         1 MOL     -0.673438
    109 O18        -0.0310   -2.3630   -3.5420 o         1 MOL     -0.673438
    110 H47         1.4800   -1.2000    0.3670 hn        1 MOL      0.251181
    111 H48         2.6760   -3.1550   -1.5500 h1        1 MOL      0.070410
    112 H49         2.3050   -1.8110   -3.3780 hc        1 MOL      0.093501
    113 H50         2.0290   -0.3420   -2.3400 hc        1 MOL      0.093501
    114 N11         5.1480   -1.9970   -1.6450 n         1 MOL     -0.674350
    115 C36         6.4750   -1.5110   -1.2960 c3        1 MOL      0.520661
    116 C37         6.6400    0.0260   -1.1080 c         1 MOL      0.199338
    117 O19         7.3200    0.4760   -0.2110 o         1 MOL     -0.465801
    118 C38         7.4710   -2.0680   -2.3190 c3        1 MOL     -0.336499
    119 C39         8.8790   -1.7810   -1.9040 ca        1 MOL      0.205905
    120 C40         9.3560   -2.1160   -0.6190 ca        1 MOL     -0.243685
    121 C41         9.8390   -1.1770   -2.8020 ca        1 MOL     -0.243685
    122 C42        10.6370   -1.7660   -0.1720 ca        1 MOL     -0.042689
    123 C43        11.1520   -0.9260   -2.3470 ca        1 MOL     -0.042689
    124 C44        11.5970   -1.1860   -1.0330 ca        1 MOL     -0.187534
    125 H51         5.0910   -2.6720   -2.3970 hn        1 MOL      0.349102
    126 H52         6.6450   -2.0170   -0.3410 h1        1 MOL      0.047974
    127 H53         7.3490   -1.6480   -3.3170 hc        1 MOL      0.089656
    128 H54         7.3240   -3.1370   -2.4770 hc        1 MOL      0.089656
    129 H55         8.6290   -2.5070    0.0890 ha        1 MOL      0.119448
    130 H56         9.5210   -1.0940   -3.8310 ha        1 MOL      0.119448
    131 H57        10.8610   -1.9980    0.8570 ha        1 MOL      0.095490
    132 H58        11.8660   -0.4190   -2.9890 ha        1 MOL      0.095490
    133 H59        12.5740   -0.8240   -0.7410 ha        1 MOL      0.130666
    134 N12         6.0550    0.9390   -1.9490 n         1 MOL      0.039450
    135 C45         6.2190    2.3730   -1.6800 c3        1 MOL     -0.020343
    136 C46         5.5510    2.8530   -0.4480 c         1 MOL      0.387657
    137 O20         5.7940    4.0000   -0.1340 o         1 MOL     -0.526760
    138 C47         5.6440    3.1100   -2.9130 c3        1 MOL     -0.027527
    139 C48         5.8970    2.0940   -4.0840 c3        1 MOL     -0.206208
    140 C49         5.5170    0.8430   -3.3110 c3        1 MOL     -0.065201
    141 H60         7.2880    2.5470   -1.6520 h1        1 MOL      0.077236
    142 H61         4.5950    3.3560   -2.6930 hc        1 MOL      0.053903
    143 H62         6.1600    4.0490   -3.0870 hc        1 MOL      0.053903
    144 H63         5.1610    2.2380   -4.8710 hc        1 MOL      0.082024
    145 H64         6.9100    1.9770   -4.4620 hc        1 MOL      0.082024
    146 H65         4.4400    0.9110   -3.1440 h1        1 MOL      0.061985
    147 H66         5.8800   -0.0820   -3.7630 h1        1 MOL      0.061985
    148 N13         4.6790    2.0820    0.2260 n         1 MOL     -0.151962
    149 C50         4.1610    2.2620    1.5720 c3        1 MOL     -0.104990
    150 C51         5.0640    1.6890    2.7340 c         1 MOL      0.516764
    151 O21         5.2490    2.2430    3.7640 o         1 MOL     -0.551376
    152 C52         2.7640    1.5570    1.7010 c3        1 MOL      0.039440
    153 C53         1.8460    1.8770    0.5130 c3        1 MOL     -0.013215
    154 C54         0.4190    1.3100    0.5420 c         1 MOL      0.530588
    155 O22         0.0910    0.3340    1.2430 o         1 MOL     -0.673108
    156 O23        -0.4920    1.8140   -0.1910 o         1 MOL     -0.673108
    157 H67         4.4750    1.1620   -0.1470 hn        1 MOL      0.059831
    158 H68         4.0760    3.3390    1.7090 h1        1 MOL      0.098244
    159 H69         2.3140    2.0730    2.5400 hc        1 MOL      0.009196
    160 H70         2.7750    0.4890    1.9280 hc        1 MOL      0.009196
    161 H71         2.2900    1.4200   -0.3700 hc        1 MOL      0.057949
    162 H72         1.8120    2.9300    0.2210 hc        1 MOL      0.057949
    163 N14         5.6660    0.5330    2.4480 n         1 MOL     -0.089795
    164 C55         6.6710   -0.0900    3.3090 c3        1 MOL     -0.214917
    165 H73         7.3060   -0.7430    2.7110 h1        1 MOL      0.082910
    166 H74         7.2830    0.6840    3.7740 h1        1 MOL      0.082910
    167 H75         6.1750   -0.6760    4.0830 h1        1 MOL      0.082910
    168 H76         5.3660    0.0430    1.6110 hn        1 MOL      0.062557
    169 Ca1        -2.1690   -0.0490   -0.1550 Ca        1 MOL      1.655159
    170 O24        -4.1280   -1.0190    1.5980 oh        1 MOL     -0.854576
    171 H77        -3.6300   -0.5210    2.2590 ho        1 MOL      0.407315
    172 H78        -5.0440   -0.7960    1.7720 ho        1 MOL      0.407315
    173 O25        -1.8560   -0.0170    2.8360 oh        1 MOL     -0.854576
    174 H79        -1.0130   -0.0710    2.3810 ho        1 MOL      0.407315
    175 H80        -1.6890    0.5810    3.5620 ho        1 MOL      0.407315
@<TRIPOS>BOND
     1    1    2 1   
     2    1    4 1   
     3    1    5 1   
     4    1    6 1   
     5    2    3 2   
     6    2    7 1   
     7    7    8 1   
     8    7   15 1   
     9    8    9 1   
    10    8   11 1   
    11    8   16 1   
    12    9   10 2   
    13    9   19 1   
    14   11   12 1   
    15   11   17 1   
    16   11   18 1   
    17   12   13 1   
    18   12   14 1   
    19   19   20 1   
    20   19   24 1   
    21   20   21 1   
    22   20   23 1   
    23   20   25 1   
    24   21   22 2   
    25   21   29 1   
    26   23   26 1   
    27   23   27 1   
    28   23   28 1   
    29   29   30 1   
    30   29   37 1   
    31   30   31 1   
    32   30   33 1   
    33   30   38 1   
    34   31   32 2   
    35   31   41 1   
    36   33   34 1   
    37   33   39 1   
    38   33   40 1   
    39   34   35 1   
    40   34   36 1   
    41   41   42 1   
    42   41   45 1   
    43   42   43 1   
    44   42   46 1   
    45   42   47 1   
    46   43   44 2   
    47   43   48 1   
    48   48   49 1   
    49   48   56 1   
    50   49   50 1   
    51   49   52 1   
    52   49   57 1   
    53   50   51 2   
    54   50   62 1   
    55   52   53 1   
    56   52   58 1   
    57   52   59 1   
    58   53   54 1   
    59   53   55 2   
    60   54   60 1   
    61   54   61 1   
    62   62   63 1   
    63   62   66 1   
    64   63   64 1   
    65   63   67 1   
    66   63   68 1   
    67   64   65 2   
    68   64   69 1   
    69   69   70 1   
    70   69   76 1   
    71   70   71 1   
    72   70   73 1   
    73   70   77 1   
    74   71   72 2   
    75   71   83 1   
    76   73   74 1   
    77   73   75 1   
    78   73   78 1   
    79   74   80 1   
    80   74   81 1   
    81   74   82 1   
    82   75   79 1   
    83   83   84 1   
    84   83   91 1   
    85   84   85 1   
    86   84   87 1   
    87   84   92 1   
    88   85   86 2   
    89   85  102 1   
    90   87   88 1   
    91   87   89 1   
    92   87   93 1   
    93   88   90 1   
    94   88   94 1   
    95   88   95 1   
    96   89   96 1   
    97   89   97 1   
    98   89   98 1   
    99   90   99 1   
   100   90  100 1   
   101   90  101 1   
   102  102  103 1   
   103  102  110 1   
   104  103  104 1   
   105  103  106 1   
   106  103  111 1   
   107  104  105 2   
   108  104  114 1   
   109  106  107 1   
   110  106  112 1   
   111  106  113 1   
   112  107  108 1   
   113  107  109 1   
   114  114  115 1   
   115  114  125 1   
   116  115  116 1   
   117  115  118 1   
   118  115  126 1   
   119  116  117 2   
   120  116  134 1   
   121  118  119 1   
   122  118  127 1   
   123  118  128 1   
   124  119  120 ar  
   125  119  121 ar  
   126  120  122 ar  
   127  120  129 1   
   128  121  123 ar  
   129  121  130 1   
   130  122  124 ar  
   131  122  131 1   
   132  123  124 ar  
   133  123  132 1   
   134  124  133 1   
   135  134  135 1   
   136  134  140 1   
   137  135  136 1   
   138  135  138 1   
   139  135  141 1   
   140  136  137 2   
   141  136  148 1   
   142  138  139 1   
   143  138  142 1   
   144  138  143 1   
   145  139  140 1   
   146  139  144 1   
   147  139  145 1   
   148  140  146 1   
   149  140  147 1   
   150  148  149 1   
   151  148  157 1   
   152  149  150 1   
   153  149  152 1   
   154  149  158 1   
   155  150  151 2   
   156  150  163 1   
   157  152  153 1   
   158  152  159 1   
   159  152  160 1   
   160  153  154 1   
   161  153  161 1   
   162  153  162 1   
   163  154  155 1   
   164  154  156 1   
   165  163  164 1   
   166  163  168 1   
   167  164  165 1   
   168  164  166 1   
   169  164  167 1   
   170  170  171 1   
   171  170  172 1   
   172  173  174 1   
   173  173  175 1   
@<TRIPOS>SUBSTRUCTURE
     1 MOL         1 TEMP              0 ****  ****    0 ROOT
