@<TRIPOS>MOLECULE
MOL
  189   185     1     0     0
SMALL
resp


@<TRIPOS>ATOM
      1 C1          0.0930    2.1080    5.9420 c3        1 MOL     -0.538077
      2 C2         -0.4510    2.2400    4.5270 c         1 MOL      0.776323
      3 O1          0.3380    2.5350    3.6000 o         1 MOL     -0.616146
      4 H1         -0.4820    1.3560    6.4830 hc        1 MOL      0.140921
      5 H2          1.1390    1.8040    5.9030 hc        1 MOL      0.140921
      6 H3          0.0120    3.0660    6.4550 hc        1 MOL      0.140921
      7 N1         -1.6980    1.8890    4.2460 n         1 MOL     -0.682501
      8 C3         -2.2640    1.8330    2.9140 c3        1 MOL      0.335211
      9 C4         -2.4520    3.1890    2.2600 c         1 MOL      0.341310
     10 O2         -3.3670    3.9320    2.6010 o         1 MOL     -0.562847
     11 C5         -3.5400    1.0450    2.9240 c3        1 MOL     -0.251271
     12 C6         -3.8920    0.7020    1.4740 c         1 MOL      0.799935
     13 O3         -4.9570    0.0870    1.3800 o         1 MOL     -0.676104
     14 O4         -3.1830    1.0440    0.4300 o         1 MOL     -0.676104
     15 H4         -2.2910    1.6840    5.0390 hn        1 MOL      0.328266
     16 H5         -1.5720    1.2500    2.3050 h1        1 MOL      0.005972
     17 H6         -4.3560    1.6000    3.3770 hc        1 MOL      0.072315
     18 H7         -3.3860    0.0830    3.4070 hc        1 MOL      0.072315
     19 N2         -1.5680    3.4890    1.3290 n         1 MOL      0.015585
     20 C7         -1.4560    4.7870    0.6530 c3        1 MOL     -0.026220
     21 C8         -2.3790    4.9430   -0.5510 c         1 MOL      0.428550
     22 O5         -2.5120    6.0880   -1.0420 o         1 MOL     -0.567653
     23 C9          0.0030    5.1670    0.3970 c3        1 MOL     -0.043483
     24 C10         0.9460    4.9290    1.5200 c3        1 MOL      0.093887
     25 C11         0.5730    5.5640    2.9180 c3        1 MOL     -0.001037
     26 C12         1.6900    5.6320    3.8860 c3        1 MOL     -0.112742
     27 N3          1.2360    6.3850    5.1190 n4        1 MOL     -0.092082
     28 H8         -1.0030    2.7110    0.9900 hn        1 MOL      0.200745
     29 H9         -1.7290    5.5080    1.4140 h1        1 MOL      0.033742
     30 H10         0.0750    6.2370    0.2170 hc        1 MOL      0.032597
     31 H11         0.4110    4.6600   -0.4810 hc        1 MOL      0.032597
     32 H12         1.8040    5.4640    1.1130 hc        1 MOL     -0.004990
     33 H13         1.1700    3.8680    1.6490 hc        1 MOL     -0.004990
     34 H14        -0.2360    4.9320    3.3040 hc        1 MOL      0.006103
     35 H15         0.2420    6.5770    2.7070 hc        1 MOL      0.006103
     36 H16         2.4690    6.1050    3.2730 hx        1 MOL      0.105427
     37 H17         1.8360    4.6230    4.2370 hx        1 MOL      0.105427
     38 H18         0.8900    5.7910    5.8490 hn        1 MOL      0.252975
     39 H19         1.9160    7.0070    5.5340 hn        1 MOL      0.252975
     40 H20         0.4000    6.8760    4.8460 hn        1 MOL      0.252975
     41 N4         -2.9960    3.8960   -1.1020 n         1 MOL     -0.242492
     42 C13        -3.9210    4.0970   -2.2190 c3        1 MOL      0.143103
     43 C14        -5.2880    3.5770   -1.9230 c         1 MOL      0.351789
     44 O6         -6.3140    3.9680   -2.5090 o         1 MOL     -0.538015
     45 C15        -3.3210    3.7080   -3.6040 c3        1 MOL     -0.143158
     46 C16        -2.9510    2.2950   -3.8530 c         1 MOL      0.754337
     47 O7         -2.2540    2.0440   -4.8980 o         1 MOL     -0.670568
     48 O8         -3.1760    1.4020   -3.0180 o         1 MOL     -0.670568
     49 H21        -2.9160    2.9960   -0.6620 hn        1 MOL      0.093356
     50 H22        -4.1130    5.1550   -2.4150 h1        1 MOL      0.068753
     51 H23        -2.3980    4.2740   -3.7470 hc        1 MOL      0.032588
     52 H24        -4.0000    4.0970   -4.3570 hc        1 MOL      0.032588
     53 N5         -5.4270    2.7000   -0.9400 n         1 MOL     -0.008308
     54 C17        -6.7430    2.3310   -0.2860 c3        1 MOL     -0.378613
     55 C18        -7.2520    1.1260   -1.0200 c         1 MOL      0.791465
     56 O9         -8.2000    1.1330   -1.7740 o         1 MOL     -0.577305
     57 H25        -4.5740    2.2740   -0.6140 hn        1 MOL      0.063406
     58 H26        -7.4880    3.1060   -0.4370 h1        1 MOL      0.145294
     59 H27        -6.5450    2.0100    0.7250 h1        1 MOL      0.145294
     60 N6         -6.7650   -0.1010   -0.6840 n         1 MOL     -0.611804
     61 C19        -7.1110   -1.3300   -1.4640 c3        1 MOL      0.013699
     62 C20        -7.1220   -2.5860   -0.5700 c         1 MOL      0.484904
     63 O10        -7.5900   -3.6550   -0.9580 o         1 MOL     -0.530758
     64 C21        -6.2450   -1.4580   -2.6600 c3        1 MOL     -0.263195
     65 C22        -4.7690   -1.5980   -2.4780 c         1 MOL      0.825595
     66 O11        -4.2830   -2.0520   -1.4260 o         1 MOL     -0.732567
     67 O12        -4.0620   -1.2270   -3.4270 o         1 MOL     -0.732567
     68 H28        -5.9580   -0.1670   -0.0810 hn        1 MOL      0.206433
     69 H29        -8.1400   -1.2120   -1.8050 h1        1 MOL      0.119273
     70 H30        -6.4500   -0.5720   -3.2650 hc        1 MOL      0.093536
     71 H31        -6.4830   -2.3240   -3.2730 hc        1 MOL      0.093536
     72 N7         -6.5630   -2.4520    0.6720 n         1 MOL     -0.298119
     73 C23        -6.4860   -3.5790    1.6130 c3        1 MOL     -0.202950
     74 C24        -5.2480   -4.4830    1.4890 c         1 MOL      0.500401
     75 O13        -5.1780   -5.5890    1.9640 o         1 MOL     -0.563034
     76 H32        -6.3290   -1.5330    1.0240 hn        1 MOL      0.295631
     77 H33        -7.3280   -4.2710    1.5590 h1        1 MOL      0.103422
     78 H34        -6.4910   -3.2030    2.6480 h1        1 MOL      0.103422
     79 N8         -4.2710   -3.9680    0.7830 n         1 MOL     -0.085592
     80 C25        -2.9400   -4.5670    0.6960 c3        1 MOL     -0.453986
     81 C26        -1.8480   -3.5110    0.8990 c         1 MOL      0.674420
     82 O14        -2.0400   -2.4250    0.3620 o         1 MOL     -0.655343
     83 C27        -2.8120   -5.3080   -0.6730 c3        1 MOL      0.642024
     84 C28        -3.9140   -6.3880   -0.8380 c3        1 MOL     -0.487065
     85 O15        -2.8890   -4.5540   -1.7760 oh        1 MOL     -0.645208
     86 H35        -4.3550   -3.0720    0.3260 hn        1 MOL      0.198672
     87 H36        -2.6710   -5.3140    1.4480 h1        1 MOL      0.138661
     88 H37        -1.9120   -5.9310   -0.6900 h1        1 MOL     -0.069195
     89 H38        -3.3760   -3.7630   -1.5400 ho        1 MOL      0.379311
     90 H39        -3.8070   -7.0290    0.0300 hc        1 MOL      0.124883
     91 H40        -4.8990   -5.9190   -0.8320 hc        1 MOL      0.124883
     92 H41        -3.8100   -6.8820   -1.8090 hc        1 MOL      0.124883
     93 N9         -0.7470   -3.9440    1.5340 n         1 MOL     -0.524048
     94 C29         0.4960   -3.1730    1.6750 c3        1 MOL      0.092586
     95 C30         1.6310   -3.7190    0.6860 c         1 MOL      0.406334
     96 O16         1.8190   -4.9120    0.5770 o         1 MOL     -0.553156
     97 C31         0.9490   -3.0920    3.1700 c3        1 MOL      0.023808
     98 C32        -0.1700   -2.8620    4.2160 c3        1 MOL      0.168846
     99 C33         2.2250   -2.2150    3.4770 c3        1 MOL     -0.134233
    100 C34         0.0610   -3.0920    5.7250 c3        1 MOL     -0.315450
    101 H42        -0.8150   -4.8760    1.9280 hn        1 MOL      0.295863
    102 H43         0.2450   -2.1630    1.3450 h1        1 MOL      0.077859
    103 H44         1.3080   -4.1050    3.3380 hc        1 MOL      0.015397
    104 H45        -1.0170   -3.5280    4.0350 hc        1 MOL     -0.004765
    105 H46        -0.6530   -1.8890    4.0700 hc        1 MOL     -0.004765
    106 H47         2.4590   -2.2490    4.5420 hc        1 MOL      0.017359
    107 H48         3.1310   -2.5660    2.9840 hc        1 MOL      0.017359
    108 H49         2.1030   -1.1440    3.3000 hc        1 MOL      0.017359
    109 H50        -0.8610   -2.8980    6.2720 hc        1 MOL      0.076467
    110 H51         0.4860   -4.0920    5.7680 hc        1 MOL      0.076467
    111 H52         0.9410   -2.4870    5.9690 hc        1 MOL      0.076467
    112 N10         2.4270   -2.9130    0.0720 n         1 MOL      0.022161
    113 C35         3.4510   -3.2220   -0.8860 c3        1 MOL      0.179136
    114 C36         4.7880   -2.7910   -0.3090 c         1 MOL      0.144179
    115 O17         4.8530   -2.0540    0.6820 o         1 MOL     -0.319520
    116 C37         3.2970   -2.3850   -2.2360 c3        1 MOL      0.026261
    117 C38         2.0150   -2.5500   -3.0060 c3        1 MOL     -0.324207
    118 O18         3.4760   -0.9930   -1.9370 oh        1 MOL     -0.307688
    119 H53         2.3520   -1.9210    0.2630 hn        1 MOL      0.023860
    120 H54         3.4430   -4.2940   -1.0820 h1        1 MOL      0.058316
    121 H55         4.1340   -2.5730   -2.9000 h1        1 MOL      0.055511
    122 H56         2.9350   -0.6150   -2.6360 ho        1 MOL      0.316453
    123 H57         1.1570   -2.2700   -2.4020 hc        1 MOL      0.098387
    124 H58         2.1470   -1.9680   -3.9190 hc        1 MOL      0.098387
    125 H59         1.7780   -3.6070   -3.1590 hc        1 MOL      0.098387
    126 N11         5.9000   -3.1930   -0.9100 n         1 MOL     -0.144466
    127 C39         7.2820   -2.9310   -0.3370 c3        1 MOL     -0.027615
    128 C40         7.5380   -1.4290   -0.2870 c         1 MOL      0.258482
    129 O19         8.4820   -1.0580    0.3550 o         1 MOL     -0.432036
    130 C41         8.3520   -3.6510   -1.1710 c3        1 MOL      0.376138
    131 C42         9.7260   -3.7540   -0.4800 c3        1 MOL     -0.382910
    132 O20         7.8960   -4.9610   -1.4100 oh        1 MOL     -0.630586
    133 H60         5.8390   -3.7190   -1.7730 hn        1 MOL      0.182549
    134 H61         7.2320   -3.3250    0.6710 h1        1 MOL      0.148255
    135 H62         8.5280   -3.1660   -2.1360 h1        1 MOL     -0.018113
    136 H63         8.4250   -5.2620   -2.1470 ho        1 MOL      0.408932
    137 H64        10.3510   -4.3670   -1.1220 hc        1 MOL      0.106344
    138 H65        10.2100   -2.7960   -0.2980 hc        1 MOL      0.106344
    139 H66         9.7530   -4.0980    0.5600 hc        1 MOL      0.106344
    140 N12         6.7890   -0.6430   -1.0830 n         1 MOL     -0.144060
    141 C43         6.7900    0.7940   -1.1710 c3        1 MOL      0.006659
    142 C44         6.0290    1.4950   -0.0870 c         1 MOL      0.367555
    143 O21         6.5240    2.4830    0.5110 o         1 MOL     -0.527694
    144 C45         6.2010    1.1750   -2.4750 c3        1 MOL     -0.017627
    145 C46         6.6120    2.5680   -2.9100 c3        1 MOL     -0.013420
    146 C47         6.4120    2.7690   -4.3880 c3        1 MOL      0.146582
    147 C48         6.6240    4.2870   -4.7700 c3        1 MOL      0.012085
    148 N13         6.7500    4.3970   -6.2200 n4        1 MOL     -0.208708
    149 H67         6.1430   -1.1550   -1.6660 hn        1 MOL      0.125880
    150 H68         7.8140    1.1330   -1.0420 h1        1 MOL      0.080709
    151 H69         5.1150    1.0920   -2.3900 hc        1 MOL      0.016824
    152 H70         6.5330    0.4800   -3.2490 hc        1 MOL      0.016824
    153 H71         7.6660    2.7940   -2.7820 hc        1 MOL      0.014199
    154 H72         6.0240    3.3340   -2.4110 hc        1 MOL      0.014199
    155 H73         5.4270    2.4560   -4.7260 hc        1 MOL     -0.026030
    156 H74         7.1340    2.1560   -4.9280 hc        1 MOL     -0.026030
    157 H75         7.4800    4.6360   -4.2020 hx        1 MOL      0.076219
    158 H76         5.7130    4.8220   -4.5110 hx        1 MOL      0.076219
    159 H77         7.6690    4.0990   -6.5090 hn        1 MOL      0.245809
    160 H78         6.1250    3.7480   -6.6750 hn        1 MOL      0.245809
    161 H79         6.6080    5.3710   -6.4470 hn        1 MOL      0.245809
    162 N14         4.8570    0.9800    0.2470 n         1 MOL      0.234952
    163 C49         3.9760    1.4730    1.2810 c3        1 MOL     -0.048859
    164 C50         4.6230    1.1770    2.6490 c         1 MOL      0.393702
    165 O22         4.7520    2.0940    3.4720 o         1 MOL     -0.541630
    166 C51         2.5350    0.8880    1.1170 c3        1 MOL     -0.008335
    167 C52         1.8000    1.4780   -0.1250 c3        1 MOL     -0.058844
    168 C53         0.3630    0.9520   -0.4270 c         1 MOL      0.585343
    169 O23         0.0090   -0.2440   -0.2900 o         1 MOL     -0.723643
    170 O24        -0.5480    1.7140   -0.8130 o         1 MOL     -0.723643
    171 H80         4.5640    0.1740   -0.2680 hn        1 MOL     -0.382668
    172 H81         3.8460    2.5580    1.2170 h1        1 MOL      0.021870
    173 H82         1.8440    1.0070    1.9570 hc        1 MOL      0.067727
    174 H83         2.6770   -0.1790    0.9490 hc        1 MOL      0.067727
    175 H84         2.3910    1.2400   -1.0060 hc        1 MOL      0.021655
    176 H85         1.8520    2.5610   -0.0980 hc        1 MOL      0.021655
    177 N15         5.0750   -0.0940    2.8570 n         1 MOL     -0.077107
    178 C54         5.8410   -0.4690    4.0570 c3        1 MOL     -0.163729
    179 H86         5.3060   -1.2470    4.6010 h1        1 MOL      0.078053
    180 H87         6.8210   -0.8440    3.7600 h1        1 MOL      0.078053
    181 H88         5.9640    0.4030    4.6980 h1        1 MOL      0.078053
    182 H89         4.8430   -0.7940    2.1700 hn        1 MOL      0.149692
    183 Ca1        -2.1340   -0.4570   -1.5630 Ca        1 MOL      1.737762
    184 O25        -0.1650    0.1720   -3.5700 oh        1 MOL     -0.769915
    185 H90         0.6970    0.4760   -3.2650 ho        1 MOL      0.381047
    186 H91        -0.2440    0.5220   -4.4550 ho        1 MOL      0.381047
    187 O26        -1.2730   -2.6500   -2.6100 oh        1 MOL     -0.769915
    188 H92        -1.6530   -3.4860   -2.3220 ho        1 MOL      0.381047
    189 H93        -0.9150   -2.8470   -3.4830 ho        1 MOL      0.381047
@<TRIPOS>BOND
     1    1    2 1   
     2    1    4 1   
     3    1    5 1   
     4    1    6 1   
     5    2    3 2   
     6    2    7 1   
     7    7    8 1   
     8    7   15 1   
     9    8    9 1   
    10    8   11 1   
    11    8   16 1   
    12    9   10 2   
    13    9   19 1   
    14   11   12 1   
    15   11   17 1   
    16   11   18 1   
    17   12   13 1   
    18   12   14 1   
    19   19   20 1   
    20   19   28 1   
    21   20   21 1   
    22   20   23 1   
    23   20   29 1   
    24   21   22 2   
    25   21   41 1   
    26   23   24 1   
    27   23   30 1   
    28   23   31 1   
    29   24   25 1   
    30   24   32 1   
    31   24   33 1   
    32   25   26 1   
    33   25   34 1   
    34   25   35 1   
    35   26   27 1   
    36   26   36 1   
    37   26   37 1   
    38   27   38 1   
    39   27   39 1   
    40   27   40 1   
    41   41   42 1   
    42   41   49 1   
    43   42   43 1   
    44   42   45 1   
    45   42   50 1   
    46   43   44 2   
    47   43   53 1   
    48   45   46 1   
    49   45   51 1   
    50   45   52 1   
    51   46   47 1   
    52   46   48 1   
    53   53   54 1   
    54   53   57 1   
    55   54   55 1   
    56   54   58 1   
    57   54   59 1   
    58   55   56 2   
    59   55   60 1   
    60   60   61 1   
    61   60   68 1   
    62   61   62 1   
    63   61   64 1   
    64   61   69 1   
    65   62   63 2   
    66   62   72 1   
    67   64   65 1   
    68   64   70 1   
    69   64   71 1   
    70   65   66 1   
    71   65   67 1   
    72   72   73 1   
    73   72   76 1   
    74   73   74 1   
    75   73   77 1   
    76   73   78 1   
    77   74   75 2   
    78   74   79 1   
    79   79   80 1   
    80   79   86 1   
    81   80   81 1   
    82   80   83 1   
    83   80   87 1   
    84   81   82 2   
    85   81   93 1   
    86   83   84 1   
    87   83   85 1   
    88   83   88 1   
    89   84   90 1   
    90   84   91 1   
    91   84   92 1   
    92   85   89 1   
    93   93   94 1   
    94   93  101 1   
    95   94   95 1   
    96   94   97 1   
    97   94  102 1   
    98   95   96 2   
    99   95  112 1   
   100   97   98 1   
   101   97   99 1   
   102   97  103 1   
   103   98  100 1   
   104   98  104 1   
   105   98  105 1   
   106   99  106 1   
   107   99  107 1   
   108   99  108 1   
   109  100  109 1   
   110  100  110 1   
   111  100  111 1   
   112  112  113 1   
   113  112  119 1   
   114  113  114 1   
   115  113  116 1   
   116  113  120 1   
   117  114  115 2   
   118  114  126 1   
   119  116  117 1   
   120  116  118 1   
   121  116  121 1   
   122  117  123 1   
   123  117  124 1   
   124  117  125 1   
   125  118  122 1   
   126  126  127 1   
   127  126  133 1   
   128  127  128 1   
   129  127  130 1   
   130  127  134 1   
   131  128  129 2   
   132  128  140 1   
   133  130  131 1   
   134  130  132 1   
   135  130  135 1   
   136  131  137 1   
   137  131  138 1   
   138  131  139 1   
   139  132  136 1   
   140  140  141 1   
   141  140  149 1   
   142  141  142 1   
   143  141  144 1   
   144  141  150 1   
   145  142  143 2   
   146  142  162 1   
   147  144  145 1   
   148  144  151 1   
   149  144  152 1   
   150  145  146 1   
   151  145  153 1   
   152  145  154 1   
   153  146  147 1   
   154  146  155 1   
   155  146  156 1   
   156  147  148 1   
   157  147  157 1   
   158  147  158 1   
   159  148  159 1   
   160  148  160 1   
   161  148  161 1   
   162  162  163 1   
   163  162  171 1   
   164  163  164 1   
   165  163  166 1   
   166  163  172 1   
   167  164  165 2   
   168  164  177 1   
   169  166  167 1   
   170  166  173 1   
   171  166  174 1   
   172  167  168 1   
   173  167  175 1   
   174  167  176 1   
   175  168  169 1   
   176  168  170 1   
   177  177  178 1   
   178  177  182 1   
   179  178  179 1   
   180  178  180 1   
   181  178  181 1   
   182  184  185 1   
   183  184  186 1   
   184  187  188 1   
   185  187  189 1   
@<TRIPOS>SUBSTRUCTURE
     1 MOL         1 TEMP              0 ****  ****    0 ROOT
