@<TRIPOS>MOLECULE
MOL
  189   185     1     0     0
SMALL
resp


@<TRIPOS>ATOM
      1 C1          0.4640    2.3410    5.5530 c3        1 MOL     -0.217672
      2 C2         -0.0260    2.1620    4.0830 c         1 MOL      0.665971
      3 O1          0.7340    2.3840    3.1270 o         1 MOL     -0.510397
      4 H1          0.3580    1.3960    6.0870 hc        1 MOL      0.060570
      5 H2          1.5110    2.6430    5.5540 hc        1 MOL      0.060570
      6 H3         -0.1370    3.1060    6.0460 hc        1 MOL      0.060570
      7 N1         -1.3800    1.9210    3.9040 n         1 MOL     -0.660597
      8 C3         -2.0590    1.7600    2.6110 c3        1 MOL      0.460681
      9 C4         -2.3820    3.0640    1.8980 c         1 MOL      0.224333
     10 O2         -3.5120    3.5900    1.8460 o         1 MOL     -0.448590
     11 C5         -3.2750    0.8830    2.8170 c3        1 MOL     -0.177552
     12 C6         -4.0340    0.6610    1.4540 c         1 MOL      0.693483
     13 O3         -3.4080    0.8370    0.3530 o         1 MOL     -0.646600
     14 O4         -5.2470    0.3280    1.5120 o         1 MOL     -0.646600
     15 H4         -1.9420    1.5970    4.6740 hn        1 MOL      0.319088
     16 H5         -1.4600    1.1080    1.9710 h1        1 MOL     -0.020402
     17 H6         -4.0090    1.3700    3.4630 hc        1 MOL      0.018527
     18 H7         -2.9520   -0.0670    3.2380 hc        1 MOL      0.018527
     19 N2         -1.3250    3.6720    1.3820 n         1 MOL     -0.070878
     20 C7         -1.2520    4.8820    0.6310 c3        1 MOL      0.059503
     21 C8         -2.1580    5.0570   -0.5350 c         1 MOL      0.453244
     22 O5         -2.5830    6.2090   -0.7920 o         1 MOL     -0.586463
     23 C9          0.2020    5.1680    0.1760 c3        1 MOL     -0.139057
     24 C10         1.3050    5.3450    1.2950 c3        1 MOL      0.107341
     25 C11         0.9280    6.1710    2.5020 c3        1 MOL     -0.200538
     26 C12         2.1360    6.3090    3.3340 c3        1 MOL      0.171799
     27 N3          1.8760    6.9260    4.6470 n4        1 MOL     -0.337898
     28 H8         -0.5050    3.0730    1.4170 hn        1 MOL     -0.001080
     29 H9         -1.4690    5.7700    1.2290 h1        1 MOL      0.029135
     30 H10         0.1380    6.1330   -0.3330 hc        1 MOL      0.042897
     31 H11         0.5360    4.4590   -0.5830 hc        1 MOL      0.042897
     32 H12         2.1700    5.7420    0.7740 hc        1 MOL      0.031211
     33 H13         1.7180    4.3910    1.6290 hc        1 MOL      0.031211
     34 H14         0.0530    5.7030    2.9580 hc        1 MOL      0.060869
     35 H15         0.6540    7.1550    2.1200 hc        1 MOL      0.060869
     36 H16         2.9010    6.8360    2.7600 hx        1 MOL      0.043116
     37 H17         2.4450    5.2790    3.5080 hx        1 MOL      0.043116
     38 H18         1.6030    7.8810    4.4860 hn        1 MOL      0.317165
     39 H19         1.1290    6.4640    5.1410 hn        1 MOL      0.317165
     40 H20         2.7570    6.9860    5.1420 hn        1 MOL      0.317165
     41 N4         -2.5560    3.9830   -1.1810 n         1 MOL     -0.111454
     42 C13        -3.5010    4.0280   -2.3660 c3        1 MOL      0.058374
     43 C14        -4.9550    3.6130   -2.1190 c         1 MOL      0.327693
     44 O6         -5.7950    3.8000   -2.9940 o         1 MOL     -0.511036
     45 C15        -2.9120    3.4170   -3.6610 c3        1 MOL     -0.255248
     46 C16        -2.5060    1.9330   -3.6430 c         1 MOL      0.886750
     47 O7         -3.1410    1.1930   -2.8280 o         1 MOL     -0.753994
     48 O8         -1.6280    1.4090   -4.4090 o         1 MOL     -0.753994
     49 H21        -2.2650    3.0950   -0.7990 hn        1 MOL      0.070482
     50 H22        -3.4830    5.0590   -2.7140 h1        1 MOL      0.101351
     51 H23        -1.9970    3.9710   -3.8930 hc        1 MOL      0.045438
     52 H24        -3.5220    3.4180   -4.5570 hc        1 MOL      0.045438
     53 N5         -5.1740    3.1150   -0.9100 n         1 MOL     -0.012947
     54 C17        -6.3890    2.7050   -0.3150 c3        1 MOL     -0.039111
     55 C18        -7.0750    1.3980   -0.8690 c         1 MOL      0.439368
     56 O9         -8.3090    1.2940   -0.9590 o         1 MOL     -0.566092
     57 H25        -4.3680    3.0490   -0.3080 hn        1 MOL      0.018761
     58 H26        -7.0810    3.5550   -0.3470 h1        1 MOL      0.059175
     59 H27        -6.3130    2.5270    0.7490 h1        1 MOL      0.059175
     60 N6         -6.3160    0.3950   -1.3830 n         1 MOL     -0.191701
     61 C19        -6.8690   -0.8530   -2.0760 c3        1 MOL     -0.085780
     62 C20        -7.1260   -2.0190   -1.0580 c         1 MOL      0.474799
     63 O10        -7.8390   -2.9580   -1.3700 o         1 MOL     -0.555813
     64 C21        -5.9770   -1.3500   -3.1380 c3        1 MOL     -0.275240
     65 C22        -4.4880   -1.6630   -2.7890 c         1 MOL      0.741164
     66 O11        -3.7140   -1.7530   -3.7320 o         1 MOL     -0.684481
     67 O12        -4.1150   -1.7940   -1.5660 o         1 MOL     -0.684481
     68 H28        -5.3100    0.4890   -1.3500 hn        1 MOL      0.214462
     69 H29        -7.8240   -0.6940   -2.5820 h1        1 MOL      0.133730
     70 H30        -5.9770   -0.5730   -3.9070 hc        1 MOL      0.096369
     71 H31        -6.3280   -2.2280   -3.6920 hc        1 MOL      0.096369
     72 N7         -6.6580   -1.8840    0.1880 n         1 MOL     -0.251324
     73 C23        -6.8260   -2.8650    1.2380 c3        1 MOL     -0.136830
     74 C24        -5.7710   -3.8870    1.4700 c         1 MOL      0.496970
     75 O13        -5.8800   -4.8080    2.2940 o         1 MOL     -0.586590
     76 H32        -5.9420   -1.2040    0.3630 hn        1 MOL      0.254523
     77 H33        -7.7290   -3.4140    0.9730 h1        1 MOL      0.097320
     78 H34        -7.0230   -2.3330    2.1770 h1        1 MOL      0.097320
     79 N8         -4.6120   -3.6880    0.8180 n         1 MOL     -0.079744
     80 C25        -3.3680   -4.3590    1.1890 c3        1 MOL     -0.060415
     81 C26        -2.1510   -3.4070    1.2370 c         1 MOL      0.601553
     82 O14        -2.2740   -2.2480    0.9780 o         1 MOL     -0.600351
     83 C27        -3.1360   -5.5680    0.3440 c3        1 MOL      0.322776
     84 C28        -4.0840   -6.6860    0.5500 c3        1 MOL     -0.415482
     85 O15        -3.0460   -5.1880   -0.9940 oh        1 MOL     -0.652287
     86 H35        -4.4940   -2.9420    0.1490 hn        1 MOL      0.045025
     87 H36        -3.4390   -4.8010    2.1840 h1        1 MOL      0.051129
     88 H37        -2.2150   -6.0240    0.7100 h1        1 MOL      0.041898
     89 H38        -3.9050   -5.2310   -1.4320 ho        1 MOL      0.432633
     90 H39        -3.6740   -7.5510    0.0390 hc        1 MOL      0.115076
     91 H40        -3.9940   -6.9870    1.5910 hc        1 MOL      0.115076
     92 H41        -5.0630   -6.4350    0.1410 hc        1 MOL      0.115076
     93 N9         -0.9200   -3.8760    1.5960 n         1 MOL     -0.458172
     94 C29         0.2620   -3.1160    1.8470 c3        1 MOL      0.040224
     95 C30         1.4730   -3.6680    1.0520 c         1 MOL      0.368119
     96 O16         1.7030   -4.9020    1.0320 o         1 MOL     -0.540918
     97 C31         0.5650   -2.9160    3.3840 c3        1 MOL      0.211156
     98 C32        -0.6180   -2.4670    4.3110 c3        1 MOL      0.175489
     99 C33         1.7820   -1.9350    3.3650 c3        1 MOL     -0.527383
    100 C34        -0.3190   -2.5510    5.8220 c3        1 MOL     -0.312184
    101 H42        -0.8880   -4.8100    1.9860 hn        1 MOL      0.227936
    102 H43         0.0400   -2.1120    1.4860 h1        1 MOL      0.054266
    103 H44         0.9210   -3.8600    3.8060 hc        1 MOL     -0.021987
    104 H45        -1.4800   -3.0750    4.0460 hc        1 MOL     -0.019855
    105 H46        -0.8720   -1.4460    4.0160 hc        1 MOL     -0.019855
    106 H47         1.3400   -0.9660    3.1290 hc        1 MOL      0.099135
    107 H48         2.2120   -1.8880    4.3640 hc        1 MOL      0.099135
    108 H49         2.6290   -2.2630    2.7590 hc        1 MOL      0.099135
    109 H50         0.4780   -1.8880    6.1480 hc        1 MOL      0.074107
    110 H51        -1.2590   -2.3290    6.3370 hc        1 MOL      0.074107
    111 H52        -0.0100   -3.5730    6.0550 hc        1 MOL      0.074107
    112 N10         2.1740   -2.7500    0.3710 n         1 MOL     -0.127963
    113 C35         3.3600   -3.2430   -0.5070 c3        1 MOL      0.060892
    114 C36         4.7440   -3.0790    0.1510 c         1 MOL      0.346655
    115 O17         4.8420   -2.4250    1.1780 o         1 MOL     -0.361374
    116 C37         3.4520   -2.4640   -1.8610 c3        1 MOL      0.006076
    117 C38         2.1580   -2.4190   -2.7210 c3        1 MOL     -0.415609
    118 O18         3.9840   -1.1340   -1.6870 oh        1 MOL     -0.106144
    119 H53         1.8320   -1.8430    0.6410 hn        1 MOL      0.363940
    120 H54         3.2760   -4.2970   -0.7550 h1        1 MOL      0.079459
    121 H55         4.1640   -3.0210   -2.4640 h1        1 MOL      0.029430
    122 H56         3.8620   -0.6000   -2.4760 ho        1 MOL      0.278288
    123 H57         1.9150   -3.4360   -3.0210 hc        1 MOL      0.115875
    124 H58         1.3280   -2.0580   -2.1190 hc        1 MOL      0.115875
    125 H59         2.3560   -1.8840   -3.6530 hc        1 MOL      0.115875
    126 N11         5.7720   -3.5000   -0.5530 n         1 MOL     -0.324686
    127 C39         7.1580   -3.1630   -0.2490 c3        1 MOL     -0.118134
    128 C40         7.4010   -1.6000   -0.2290 c         1 MOL      0.275882
    129 O19         8.2490   -1.1100    0.5420 o         1 MOL     -0.500590
    130 C41         8.0550   -3.7500   -1.3580 c3        1 MOL      0.381171
    131 C42         7.8240   -5.3050   -1.5260 c3        1 MOL     -0.448139
    132 O20         7.7700   -3.2300   -2.6660 oh        1 MOL     -0.578085
    133 H60         5.5870   -4.0590   -1.3770 hn        1 MOL      0.282834
    134 H61         7.4570   -3.6510    0.6760 h1        1 MOL      0.144453
    135 H62         9.0980   -3.6220   -1.0790 h1        1 MOL      0.037149
    136 H63         8.2750   -2.4180   -2.7540 ho        1 MOL      0.349390
    137 H64         7.9400   -5.6480   -0.4950 hc        1 MOL      0.126788
    138 H65         6.9410   -5.6130   -2.0780 hc        1 MOL      0.126788
    139 H66         8.7290   -5.7040   -1.9780 hc        1 MOL      0.126788
    140 N12         6.7020   -0.8640   -1.0660 n         1 MOL      0.022069
    141 C43         6.8980    0.6030   -1.2440 c3        1 MOL     -0.164824
    142 C44         6.0800    1.4300   -0.3060 c         1 MOL      0.411114
    143 O21         6.5260    2.4550    0.1660 o         1 MOL     -0.528830
    144 C45         6.6060    1.0250   -2.7060 c3        1 MOL     -0.092075
    145 C46         6.8160    2.5280   -3.0210 c3        1 MOL      0.181091
    146 C47         6.7920    2.8980   -4.5180 c3        1 MOL      0.039433
    147 C48         5.4370    2.5870   -5.0930 c3        1 MOL     -0.003496
    148 N13         4.9210    3.5170   -6.0890 n4        1 MOL     -0.211269
    149 H67         5.9250   -1.3580   -1.4850 hn        1 MOL     -0.045403
    150 H68         7.9340    0.8560   -1.0280 h1        1 MOL      0.159643
    151 H69         5.5580    0.9060   -2.9500 hc        1 MOL      0.014099
    152 H70         7.1540    0.4070   -3.4130 hc        1 MOL      0.014099
    153 H71         7.7090    2.8910   -2.5230 hc        1 MOL     -0.027164
    154 H72         5.9680    3.0360   -2.5550 hc        1 MOL     -0.027164
    155 H73         7.6220    2.4100   -5.0260 hc        1 MOL      0.010068
    156 H74         6.9260    3.9750   -4.5360 hc        1 MOL      0.010068
    157 H75         4.6040    2.6430   -4.3910 hx        1 MOL      0.077039
    158 H76         5.5270    1.6020   -5.5650 hx        1 MOL      0.077039
    159 H77         4.4500    4.3470   -5.7650 hn        1 MOL      0.275929
    160 H78         5.6200    3.8210   -6.7390 hn        1 MOL      0.275929
    161 H79         4.2630    3.0230   -6.6860 hn        1 MOL      0.275929
    162 N14         4.9800    0.9020    0.1850 n         1 MOL     -0.016317
    163 C49         4.1570    1.3910    1.2530 c3        1 MOL     -0.040177
    164 C50         4.7990    1.1960    2.6710 c         1 MOL      0.404178
    165 O22         4.8600    2.1610    3.4900 o         1 MOL     -0.560777
    166 C51         2.7660    0.7220    1.1360 c3        1 MOL      0.085644
    167 C52         1.8840    1.3620    0.0530 c3        1 MOL     -0.259206
    168 C53         0.5040    0.7340   -0.1330 c         1 MOL      0.834044
    169 O23         0.3900   -0.5130   -0.1550 o         1 MOL     -0.761337
    170 O24        -0.4830    1.4170   -0.4820 o         1 MOL     -0.761337
    171 H80         4.6560    0.0820   -0.3040 hn        1 MOL      0.057094
    172 H81         4.0380    2.4600    1.0480 h1        1 MOL      0.024854
    173 H82         2.2140    0.8200    2.0680 hc        1 MOL     -0.032191
    174 H83         2.9180   -0.3350    0.8980 hc        1 MOL     -0.032191
    175 H84         2.3950    1.2990   -0.8980 hc        1 MOL      0.023673
    176 H85         1.8220    2.4330    0.2670 hc        1 MOL      0.023673
    177 N15         5.3370   -0.0130    2.8370 n         1 MOL     -0.028254
    178 C54         6.1400   -0.4180    3.9480 c3        1 MOL     -0.390746
    179 H86         5.6330   -1.2150    4.4910 h1        1 MOL      0.133210
    180 H87         7.1030   -0.7810    3.5880 h1        1 MOL      0.133210
    181 H88         6.2970    0.4320    4.6130 h1        1 MOL      0.133210
    182 H89         5.1320   -0.6560    2.0850 hn        1 MOL      0.158288
    183 Ca1        -1.9550   -0.6070   -1.2130 Ca        1 MOL      1.718196
    184 O25        -1.4530   -3.1080   -1.9230 oh        1 MOL     -0.850974
    185 H90        -1.0670   -3.4640   -2.7270 ho        1 MOL      0.398715
    186 H91        -1.9750   -3.8310   -1.5820 ho        1 MOL      0.398715
    187 O26        -0.4330   -0.5260   -3.4470 oh        1 MOL     -0.850974
    188 H92        -0.4880   -1.2880   -4.0270 ho        1 MOL      0.398715
    189 H93        -0.9190    0.1610   -3.9090 ho        1 MOL      0.398715
@<TRIPOS>BOND
     1    1    2 1   
     2    1    4 1   
     3    1    5 1   
     4    1    6 1   
     5    2    3 2   
     6    2    7 1   
     7    7    8 1   
     8    7   15 1   
     9    8    9 1   
    10    8   11 1   
    11    8   16 1   
    12    9   10 2   
    13    9   19 1   
    14   11   12 1   
    15   11   17 1   
    16   11   18 1   
    17   12   13 1   
    18   12   14 1   
    19   19   20 1   
    20   19   28 1   
    21   20   21 1   
    22   20   23 1   
    23   20   29 1   
    24   21   22 2   
    25   21   41 1   
    26   23   24 1   
    27   23   30 1   
    28   23   31 1   
    29   24   25 1   
    30   24   32 1   
    31   24   33 1   
    32   25   26 1   
    33   25   34 1   
    34   25   35 1   
    35   26   27 1   
    36   26   36 1   
    37   26   37 1   
    38   27   38 1   
    39   27   39 1   
    40   27   40 1   
    41   41   42 1   
    42   41   49 1   
    43   42   43 1   
    44   42   45 1   
    45   42   50 1   
    46   43   44 2   
    47   43   53 1   
    48   45   46 1   
    49   45   51 1   
    50   45   52 1   
    51   46   47 1   
    52   46   48 1   
    53   53   54 1   
    54   53   57 1   
    55   54   55 1   
    56   54   58 1   
    57   54   59 1   
    58   55   56 2   
    59   55   60 1   
    60   60   61 1   
    61   60   68 1   
    62   61   62 1   
    63   61   64 1   
    64   61   69 1   
    65   62   63 2   
    66   62   72 1   
    67   64   65 1   
    68   64   70 1   
    69   64   71 1   
    70   65   66 1   
    71   65   67 1   
    72   72   73 1   
    73   72   76 1   
    74   73   74 1   
    75   73   77 1   
    76   73   78 1   
    77   74   75 2   
    78   74   79 1   
    79   79   80 1   
    80   79   86 1   
    81   80   81 1   
    82   80   83 1   
    83   80   87 1   
    84   81   82 2   
    85   81   93 1   
    86   83   84 1   
    87   83   85 1   
    88   83   88 1   
    89   84   90 1   
    90   84   91 1   
    91   84   92 1   
    92   85   89 1   
    93   93   94 1   
    94   93  101 1   
    95   94   95 1   
    96   94   97 1   
    97   94  102 1   
    98   95   96 2   
    99   95  112 1   
   100   97   98 1   
   101   97   99 1   
   102   97  103 1   
   103   98  100 1   
   104   98  104 1   
   105   98  105 1   
   106   99  106 1   
   107   99  107 1   
   108   99  108 1   
   109  100  109 1   
   110  100  110 1   
   111  100  111 1   
   112  112  113 1   
   113  112  119 1   
   114  113  114 1   
   115  113  116 1   
   116  113  120 1   
   117  114  115 2   
   118  114  126 1   
   119  116  117 1   
   120  116  118 1   
   121  116  121 1   
   122  117  123 1   
   123  117  124 1   
   124  117  125 1   
   125  118  122 1   
   126  126  127 1   
   127  126  133 1   
   128  127  128 1   
   129  127  130 1   
   130  127  134 1   
   131  128  129 2   
   132  128  140 1   
   133  130  131 1   
   134  130  132 1   
   135  130  135 1   
   136  131  137 1   
   137  131  138 1   
   138  131  139 1   
   139  132  136 1   
   140  140  141 1   
   141  140  149 1   
   142  141  142 1   
   143  141  144 1   
   144  141  150 1   
   145  142  143 2   
   146  142  162 1   
   147  144  145 1   
   148  144  151 1   
   149  144  152 1   
   150  145  146 1   
   151  145  153 1   
   152  145  154 1   
   153  146  147 1   
   154  146  155 1   
   155  146  156 1   
   156  147  148 1   
   157  147  157 1   
   158  147  158 1   
   159  148  159 1   
   160  148  160 1   
   161  148  161 1   
   162  162  163 1   
   163  162  171 1   
   164  163  164 1   
   165  163  166 1   
   166  163  172 1   
   167  164  165 2   
   168  164  177 1   
   169  166  167 1   
   170  166  173 1   
   171  166  174 1   
   172  167  168 1   
   173  167  175 1   
   174  167  176 1   
   175  168  169 1   
   176  168  170 1   
   177  177  178 1   
   178  177  182 1   
   179  178  179 1   
   180  178  180 1   
   181  178  181 1   
   182  184  185 1   
   183  184  186 1   
   184  187  188 1   
   185  187  189 1   
@<TRIPOS>SUBSTRUCTURE
     1 MOL         1 TEMP              0 ****  ****    0 ROOT
