@<TRIPOS>MOLECULE
MOL
  189   185     1     0     0
SMALL
resp


@<TRIPOS>ATOM
      1 C1          1.2190   -4.4460    5.9850 c3        1 MOL     -0.461361
      2 C2          1.5740   -3.9790    4.5710 c         1 MOL      0.794253
      3 O1          1.3890   -2.7620    4.4170 o         1 MOL     -0.578487
      4 H1          0.4680   -3.7800    6.4090 hc        1 MOL      0.107706
      5 H2          0.8230   -5.4600    5.9440 hc        1 MOL      0.107706
      6 H3          2.1130   -4.4280    6.6090 hc        1 MOL      0.107706
      7 N1          1.9080   -4.8750    3.6030 n         1 MOL     -0.635738
      8 C3          2.3520   -4.3160    2.3350 c3        1 MOL      0.183854
      9 C4          2.1270   -5.3690    1.2270 c         1 MOL      0.556698
     10 O2          2.5400   -6.5310    1.3270 o         1 MOL     -0.586470
     11 C5          3.8530   -3.8600    2.4470 c3        1 MOL     -0.259605
     12 C6          4.4110   -2.9570    1.3500 c         1 MOL      0.785190
     13 O3          5.6540   -2.7970    1.2940 o         1 MOL     -0.709717
     14 O4          3.7010   -2.4120    0.4730 o         1 MOL     -0.709717
     15 H4          1.8740   -5.8810    3.7480 hn        1 MOL      0.326021
     16 H5          1.8070   -3.3960    2.1310 h1        1 MOL     -0.036732
     17 H6          4.4300   -4.7790    2.4900 hc        1 MOL      0.055781
     18 H7          3.9970   -3.3050    3.3710 hc        1 MOL      0.055781
     19 N2          1.6420   -4.8890    0.1090 n         1 MOL     -0.334881
     20 C7          1.4000   -5.7090   -1.1120 c3        1 MOL     -0.230126
     21 C8          2.0850   -5.1600   -2.3980 c         1 MOL      0.624890
     22 O5          1.9460   -5.8420   -3.3980 o         1 MOL     -0.582681
     23 C9         -0.1280   -5.9390   -1.2790 c3        1 MOL      0.285578
     24 C10        -0.9410   -4.6890   -1.6930 c3        1 MOL     -0.003110
     25 C11        -0.6460   -6.7440   -0.0310 c3        1 MOL     -0.272856
     26 C12        -2.3320   -5.0540   -2.1950 c3        1 MOL     -0.367002
     27 H8          1.3250   -3.9280    0.1360 hn        1 MOL      0.259538
     28 H9          1.8010   -6.7080   -0.9300 h1        1 MOL      0.131668
     29 H10        -0.2530   -6.5730   -2.1620 hc        1 MOL     -0.050923
     30 H11        -0.3640   -4.0910   -2.3940 hc        1 MOL      0.069002
     31 H12        -0.9420   -3.9960   -0.8540 hc        1 MOL      0.069002
     32 H13        -1.6390   -7.1520   -0.2190 hc        1 MOL      0.047689
     33 H14         0.1030   -7.4590    0.3220 hc        1 MOL      0.047689
     34 H15        -0.8130   -6.0400    0.7950 hc        1 MOL      0.047689
     35 H16        -2.7210   -4.1440   -2.6600 hc        1 MOL      0.095932
     36 H17        -2.3920   -5.7630   -3.0130 hc        1 MOL      0.095932
     37 H18        -3.0080   -5.3150   -1.3790 hc        1 MOL      0.095932
     38 N3          2.9380   -4.1130   -2.3260 n         1 MOL     -0.491072
     39 C13         3.6470   -3.5750   -3.4930 c3        1 MOL      0.117081
     40 C14         5.0490   -3.0150   -3.1870 c         1 MOL      0.423951
     41 O6          5.8640   -2.9850   -4.0890 o         1 MOL     -0.545078
     42 C15         2.7510   -2.5540   -4.1770 c3        1 MOL     -0.418105
     43 C16         2.2400   -1.4070   -3.2990 c         1 MOL      0.775748
     44 O7          2.8200   -1.1140   -2.2520 o         1 MOL     -0.694240
     45 O8          1.1340   -0.8560   -3.5540 o         1 MOL     -0.694240
     46 H19         2.9300   -3.5860   -1.4740 hn        1 MOL      0.326895
     47 H20         3.9830   -4.4260   -4.0740 h1        1 MOL      0.080491
     48 H21         1.8730   -3.0860   -4.5330 hc        1 MOL      0.111789
     49 H22         3.2960   -2.1670   -5.0460 hc        1 MOL      0.111789
     50 N4          5.2870   -2.5860   -1.9380 n         1 MOL     -0.242918
     51 C17         6.6710   -2.0320   -1.5620 c3        1 MOL     -0.070100
     52 C18         6.9730   -0.6340   -2.0810 c         1 MOL      0.409269
     53 O9          8.1230   -0.3810   -2.3740 o         1 MOL     -0.572808
     54 H23         4.5470   -2.6500   -1.2470 hn        1 MOL      0.147727
     55 H24         7.4120   -2.6520   -2.0720 h1        1 MOL      0.086343
     56 H25         6.9730   -2.1390   -0.5220 h1        1 MOL      0.086343
     57 N5          5.9880    0.2270   -2.1880 n         1 MOL     -0.122955
     58 C19         6.1210    1.6060   -2.7240 c3        1 MOL      0.056988
     59 C20         6.7330    2.6400   -1.7710 c         1 MOL      0.407047
     60 O10         7.5520    3.5370   -2.0260 o         1 MOL     -0.557466
     61 C21         4.8000    2.0170   -3.3530 c3        1 MOL     -0.454813
     62 C22         3.6240    2.1400   -2.3560 c         1 MOL      0.814996
     63 O11         3.7690    1.7260   -1.1690 o         1 MOL     -0.687816
     64 O12         2.6050    2.6380   -2.7440 o         1 MOL     -0.687816
     65 H26         5.1010   -0.1000   -1.8300 hn        1 MOL      0.211847
     66 H27         6.8980    1.5380   -3.4890 h1        1 MOL      0.075105
     67 H28         4.6030    1.2200   -4.0660 hc        1 MOL      0.120960
     68 H29         4.9360    3.0140   -3.7660 hc        1 MOL      0.120960
     69 N6          6.4470    2.3810   -0.4870 n         1 MOL     -0.105056
     70 C23         6.8560    3.1320    0.7030 c3        1 MOL     -0.214743
     71 C24         5.8770    4.1120    1.1270 c         1 MOL      0.515463
     72 O13         6.1570    5.0060    1.8920 o         1 MOL     -0.611903
     73 H30         5.6970    1.7280   -0.3680 hn        1 MOL     -0.009560
     74 H31         7.8340    3.5880    0.5830 h1        1 MOL      0.109812
     75 H32         6.9060    2.3990    1.5040 h1        1 MOL      0.109812
     76 N7          4.6700    3.8340    0.7660 n         1 MOL     -0.065147
     77 C25         3.4970    4.4660    1.3650 c3        1 MOL     -0.165221
     78 C26         2.4270    3.3800    1.8520 c         1 MOL      0.640154
     79 O14         2.5290    2.2270    1.4720 o         1 MOL     -0.663065
     80 C27         2.8390    5.5200    0.3950 c3        1 MOL      0.050353
     81 C28         3.8110    6.5680   -0.0770 c3        1 MOL     -0.297742
     82 C29         2.9020    7.5820   -0.8010 c         1 MOL      0.638055
     83 N8          2.6070    7.3970   -2.0460 n         1 MOL     -0.778850
     84 O15         2.4090    8.5810   -0.2610 o         1 MOL     -0.589524
     85 H33         4.5750    3.1400    0.0350 hn        1 MOL      0.205768
     86 H34         3.6940    5.0750    2.2560 h1        1 MOL      0.085775
     87 H35         2.0960    6.0100    1.0280 hc        1 MOL      0.033397
     88 H36         2.5500    5.0360   -0.5350 hc        1 MOL      0.033397
     89 H37         4.5540    6.0610   -0.6950 hc        1 MOL      0.100394
     90 H38         4.3270    7.0330    0.7540 hc        1 MOL      0.100394
     91 H39         2.8470    6.5300   -2.5040 hn        1 MOL      0.367980
     92 H40         2.0290    8.0590   -2.5570 hn        1 MOL      0.367980
     93 N9          1.4810    3.8020    2.6750 n         1 MOL     -0.627561
     94 C30         0.2540    3.0050    3.0290 c3        1 MOL      0.219289
     95 C31        -0.7600    3.2870    1.9500 c         1 MOL      0.444382
     96 O16        -1.0540    4.4270    1.6720 o         1 MOL     -0.603111
     97 C32        -0.2080    3.3470    4.4770 c3        1 MOL      0.165491
     98 C33        -1.2610    2.3340    5.0420 c3        1 MOL     -0.205258
     99 C34         0.9360    3.5920    5.5170 c3        1 MOL     -0.205258
    100 H41         1.5230    4.7530    3.0140 hn        1 MOL      0.339290
    101 H42         0.4310    1.9360    2.9820 h1        1 MOL      0.046919
    102 H43        -0.7830    4.2610    4.4680 hc        1 MOL     -0.002810
    103 H44        -2.0540    2.3720    4.2890 hc        1 MOL      0.043331
    104 H45        -0.8740    1.3250    5.1010 hc        1 MOL      0.043331
    105 H46        -1.7100    2.6060    6.0040 hc        1 MOL      0.043331
    106 H47         0.4850    3.9560    6.4340 hc        1 MOL      0.043331
    107 H48         1.5140    2.7100    5.7810 hc        1 MOL      0.043331
    108 H49         1.5910    4.4030    5.2120 hc        1 MOL      0.043331
    109 N10        -1.4130    2.2520    1.3400 n         1 MOL     -0.129061
    110 C35        -2.4980    2.4400    0.3940 c3        1 MOL      0.238748
    111 C36        -3.9070    2.1720    0.9780 c         1 MOL      0.206673
    112 O17        -4.0350    1.4230    1.9870 o         1 MOL     -0.439298
    113 C37        -2.2090    1.4700   -0.7900 c3        1 MOL     -0.238164
    114 C38        -3.2440    1.6420   -1.8300 c         1 MOL      0.763852
    115 N11        -3.2130    2.7360   -2.5600 n         1 MOL     -0.814448
    116 O18        -4.1040    0.8280   -1.9690 o         1 MOL     -0.535559
    117 H50        -1.0220    1.3310    1.4870 hn        1 MOL      0.053510
    118 H51        -2.6090    3.4190   -0.0630 h1        1 MOL     -0.013644
    119 H52        -2.3030    0.4440   -0.4200 hc        1 MOL      0.083499
    120 H53        -1.2660    1.7850   -1.2310 hc        1 MOL      0.083499
    121 H54        -2.7110    3.5720   -2.3150 hn        1 MOL      0.353794
    122 H55        -3.9400    2.7510   -3.2520 hn        1 MOL      0.353794
    123 N12        -4.9260    2.7610    0.3750 n         1 MOL     -0.184683
    124 C39        -6.4220    2.5640    0.6600 c3        1 MOL      0.047260
    125 C40        -6.9180    1.1040    0.7970 c         1 MOL      0.429131
    126 O19        -7.8380    0.7980    1.5530 o         1 MOL     -0.561844
    127 C41        -7.3610    3.4530   -0.2430 c3        1 MOL     -0.122482
    128 C42        -7.5830    2.9900   -1.6380 ca        1 MOL      0.103934
    129 C43        -8.6010    2.0780   -1.9690 ca        1 MOL     -0.195569
    130 C44        -6.7470    3.4960   -2.6280 ca        1 MOL     -0.195569
    131 C45        -8.7930    1.7350   -3.2690 ca        1 MOL     -0.303697
    132 C46        -6.9240    3.1340   -3.9610 ca        1 MOL     -0.303697
    133 C47        -7.9360    2.1510   -4.3080 ca        1 MOL      0.416569
    134 O20        -8.1040    1.8810   -5.5830 oh        1 MOL     -0.530605
    135 H56        -4.7240    3.5480   -0.2140 hn        1 MOL      0.181832
    136 H57        -6.5530    2.9590    1.6630 h1        1 MOL      0.054756
    137 H58        -6.9860    4.4740   -0.3060 hc        1 MOL      0.035040
    138 H59        -8.3280    3.4220    0.2630 hc        1 MOL      0.035040
    139 H60        -9.3090    1.7990   -1.2050 ha        1 MOL      0.146193
    140 H61        -5.8890    4.0740   -2.3230 ha        1 MOL      0.146193
    141 H62        -9.6710    1.1420   -3.4810 ha        1 MOL      0.151569
    142 H63        -6.3290    3.5140   -4.7770 ha        1 MOL      0.151569
    143 H64        -8.7320    1.2010   -5.8350 ho        1 MOL      0.418944
    144 N13        -6.1870    0.1860    0.1520 n         1 MOL     -0.006604
    145 C48        -6.3410   -1.2710    0.2400 c3        1 MOL     -0.209110
    146 C49        -5.4760   -1.9710    1.2640 c         1 MOL      0.425022
    147 O21        -5.6600   -3.1280    1.6830 o         1 MOL     -0.548575
    148 C50        -6.0980   -1.7880   -1.2350 c3        1 MOL      0.059057
    149 C51        -7.2660   -1.4520   -2.1230 c3        1 MOL     -0.265084
    150 C52        -7.1750   -2.3700   -3.3290 c         1 MOL      0.699901
    151 O22        -6.6640   -1.8990   -4.3760 o         1 MOL     -0.731639
    152 O23        -7.6290   -3.5200   -3.3000 o         1 MOL     -0.731639
    153 H65        -5.4820    0.4250   -0.5170 hn        1 MOL      0.103149
    154 H66        -7.3680   -1.5090    0.5070 h1        1 MOL      0.135273
    155 H67        -5.9830   -2.8680   -1.2360 hc        1 MOL      0.050470
    156 H68        -5.2020   -1.3250   -1.6620 hc        1 MOL      0.050470
    157 H69        -7.2610   -0.3760   -2.2730 hc        1 MOL      0.043908
    158 H70        -8.1540   -1.6630   -1.5320 hc        1 MOL      0.043908
    159 N14        -4.6100   -1.2730    1.9720 n         1 MOL     -0.308654
    160 C53        -3.6850   -1.9570    2.9160 c3        1 MOL     -0.109802
    161 C54        -3.9950   -1.6300    4.3760 c         1 MOL      0.464775
    162 O24        -3.6110   -2.3820    5.3030 o         1 MOL     -0.564384
    163 C55        -2.1980   -1.5510    2.7010 c3        1 MOL      0.084679
    164 C56        -1.5970   -2.0160    1.3350 c3        1 MOL      0.030777
    165 C57        -0.2090   -1.4160    1.0560 c         1 MOL      0.726382
    166 O25         0.5550   -2.1560    0.4390 o         1 MOL     -0.739916
    167 O26         0.0250   -0.2000    1.2560 o         1 MOL     -0.739916
    168 H71        -4.5780   -0.2830    1.7840 hn        1 MOL      0.202729
    169 H72        -3.7080   -3.0310    2.7870 h1        1 MOL      0.130060
    170 H73        -1.7340   -2.0990    3.5190 hc        1 MOL     -0.001059
    171 H74        -2.1080   -0.4730    2.8360 hc        1 MOL     -0.001059
    172 H75        -2.1830   -1.7680    0.4570 hc        1 MOL      0.003120
    173 H76        -1.5870   -3.1030    1.3300 hc        1 MOL      0.003120
    174 N15        -4.6630   -0.5270    4.6250 n         1 MOL     -0.153663
    175 C58        -4.8850   -0.0210    5.9330 c3        1 MOL     -0.220209
    176 H77        -5.7480    0.6440    5.9230 h1        1 MOL      0.085963
    177 H78        -5.0710   -0.8490    6.6170 h1        1 MOL      0.085963
    178 H79        -4.0050    0.5320    6.2630 h1        1 MOL      0.085963
    179 H80        -4.9130    0.0050    3.8150 hn        1 MOL      0.190247
    180 Ca1         2.4070   -0.1240    0.2810 Ca        1 MOL      1.736029
    181 O27         2.7670   -0.9110    2.7730 oh        1 MOL     -0.799270
    182 H81         2.2120   -1.0810    3.5320 ho        1 MOL      0.389011
    183 H82         3.4790   -0.3680    3.1160 ho        1 MOL      0.389011
    184 O28         0.9010    0.9150   -1.6550 oh        1 MOL     -0.799270
    185 H83         1.1150    0.3450   -2.3920 ho        1 MOL      0.389011
    186 H84         1.2920    1.7590   -1.8730 ho        1 MOL      0.389011
    187 O29         5.0470   -0.0680    1.0180 oh        1 MOL     -0.799270
    188 H85         5.4320    0.1600    1.8690 ho        1 MOL      0.389011
    189 H86         5.3000   -0.9770    0.8750 ho        1 MOL      0.389011
@<TRIPOS>BOND
     1    1    2 1   
     2    1    4 1   
     3    1    5 1   
     4    1    6 1   
     5    2    3 2   
     6    2    7 1   
     7    7    8 1   
     8    7   15 1   
     9    8    9 1   
    10    8   11 1   
    11    8   16 1   
    12    9   10 2   
    13    9   19 1   
    14   11   12 1   
    15   11   17 1   
    16   11   18 1   
    17   12   13 1   
    18   12   14 1   
    19   19   20 1   
    20   19   27 1   
    21   20   21 1   
    22   20   23 1   
    23   20   28 1   
    24   21   22 2   
    25   21   38 1   
    26   23   24 1   
    27   23   25 1   
    28   23   29 1   
    29   24   26 1   
    30   24   30 1   
    31   24   31 1   
    32   25   32 1   
    33   25   33 1   
    34   25   34 1   
    35   26   35 1   
    36   26   36 1   
    37   26   37 1   
    38   38   39 1   
    39   38   46 1   
    40   39   40 1   
    41   39   42 1   
    42   39   47 1   
    43   40   41 2   
    44   40   50 1   
    45   42   43 1   
    46   42   48 1   
    47   42   49 1   
    48   43   44 1   
    49   43   45 1   
    50   50   51 1   
    51   50   54 1   
    52   51   52 1   
    53   51   55 1   
    54   51   56 1   
    55   52   53 2   
    56   52   57 1   
    57   57   58 1   
    58   57   65 1   
    59   58   59 1   
    60   58   61 1   
    61   58   66 1   
    62   59   60 2   
    63   59   69 1   
    64   61   62 1   
    65   61   67 1   
    66   61   68 1   
    67   62   63 1   
    68   62   64 1   
    69   69   70 1   
    70   69   73 1   
    71   70   71 1   
    72   70   74 1   
    73   70   75 1   
    74   71   72 2   
    75   71   76 1   
    76   76   77 1   
    77   76   85 1   
    78   77   78 1   
    79   77   80 1   
    80   77   86 1   
    81   78   79 2   
    82   78   93 1   
    83   80   81 1   
    84   80   87 1   
    85   80   88 1   
    86   81   82 1   
    87   81   89 1   
    88   81   90 1   
    89   82   83 1   
    90   82   84 2   
    91   83   91 1   
    92   83   92 1   
    93   93   94 1   
    94   93  100 1   
    95   94   95 1   
    96   94   97 1   
    97   94  101 1   
    98   95   96 2   
    99   95  109 1   
   100   97   98 1   
   101   97   99 1   
   102   97  102 1   
   103   98  103 1   
   104   98  104 1   
   105   98  105 1   
   106   99  106 1   
   107   99  107 1   
   108   99  108 1   
   109  109  110 1   
   110  109  117 1   
   111  110  111 1   
   112  110  113 1   
   113  110  118 1   
   114  111  112 2   
   115  111  123 1   
   116  113  114 1   
   117  113  119 1   
   118  113  120 1   
   119  114  115 1   
   120  114  116 2   
   121  115  121 1   
   122  115  122 1   
   123  123  124 1   
   124  123  135 1   
   125  124  125 1   
   126  124  127 1   
   127  124  136 1   
   128  125  126 2   
   129  125  144 1   
   130  127  128 1   
   131  127  137 1   
   132  127  138 1   
   133  128  129 ar  
   134  128  130 ar  
   135  129  131 ar  
   136  129  139 1   
   137  130  132 ar  
   138  130  140 1   
   139  131  133 ar  
   140  131  141 1   
   141  132  133 ar  
   142  132  142 1   
   143  133  134 1   
   144  134  143 1   
   145  144  145 1   
   146  144  153 1   
   147  145  146 1   
   148  145  148 1   
   149  145  154 1   
   150  146  147 2   
   151  146  159 1   
   152  148  149 1   
   153  148  155 1   
   154  148  156 1   
   155  149  150 1   
   156  149  157 1   
   157  149  158 1   
   158  150  151 1   
   159  150  152 1   
   160  159  160 1   
   161  159  168 1   
   162  160  161 1   
   163  160  163 1   
   164  160  169 1   
   165  161  162 2   
   166  161  174 1   
   167  163  164 1   
   168  163  170 1   
   169  163  171 1   
   170  164  165 1   
   171  164  172 1   
   172  164  173 1   
   173  165  166 1   
   174  165  167 1   
   175  174  175 1   
   176  174  179 1   
   177  175  176 1   
   178  175  177 1   
   179  175  178 1   
   180  181  182 1   
   181  181  183 1   
   182  184  185 1   
   183  184  186 1   
   184  187  188 1   
   185  187  189 1   
@<TRIPOS>SUBSTRUCTURE
     1 MOL         1 TEMP              0 ****  ****    0 ROOT
