@<TRIPOS>MOLECULE
MOL
  179   176     1     0     0
SMALL
resp


@<TRIPOS>ATOM
      1 C1          2.9070    3.8060    4.0190 c3        1 MOL     -0.266422
      2 C2          1.9730    3.3310    2.7760 c         1 MOL      0.678709
      3 O1          2.4350    3.1170    1.6750 o         1 MOL     -0.551965
      4 H1          3.9470    3.8470    3.6960 hc        1 MOL      0.059439
      5 H2          2.5930    4.7950    4.3530 hc        1 MOL      0.059439
      6 H3          2.8090    3.0960    4.8390 hc        1 MOL      0.059439
      7 N1          0.6560    3.4170    3.0180 n         1 MOL     -0.725528
      8 C3         -0.3850    3.0630    1.9970 c3        1 MOL      0.209383
      9 C4         -0.9810    4.2870    1.3290 c         1 MOL      0.600844
     10 O2         -2.0800    4.7330    1.5940 o         1 MOL     -0.525674
     11 C5         -1.5550    2.1670    2.6320 c3        1 MOL     -0.055410
     12 C6         -2.6650    1.6210    1.6380 c         1 MOL      0.591934
     13 O3         -3.8330    1.4390    2.0650 o         1 MOL     -0.658971
     14 O4         -2.3780    1.5280    0.3990 o         1 MOL     -0.658971
     15 H4          0.3730    3.6540    3.9650 hn        1 MOL      0.352611
     16 H5          0.0870    2.3920    1.2940 h1        1 MOL      0.024581
     17 H6         -2.0550    2.8870    3.2680 hc        1 MOL      0.007909
     18 H7         -1.2430    1.4190    3.3570 hc        1 MOL      0.007909
     19 N2         -0.2190    4.9740    0.4850 n         1 MOL     -0.508187
     20 C7         -0.6480    6.1970   -0.1960 c3        1 MOL     -0.055844
     21 C8         -1.7760    6.0360   -1.2520 c         1 MOL      0.515451
     22 O5         -2.3020    7.0450   -1.6950 o         1 MOL     -0.558012
     23 C9          0.6540    6.7730   -0.8590 c3        1 MOL     -0.051256
     24 C10         1.7770    7.1150    0.0500 c3        1 MOL      0.078817
     25 C11         2.9190    7.8460   -0.6130 c3        1 MOL      0.088883
     26 C12         3.9340    8.5020    0.3900 c3        1 MOL     -0.150977
     27 N3          4.7080    7.5450    1.1690 n4        1 MOL     -0.234056
     28 H8          0.5920    4.4830    0.1330 hn        1 MOL      0.366145
     29 H9         -1.0160    6.9330    0.5240 h1        1 MOL      0.124099
     30 H10         0.4400    7.6630   -1.4580 hc        1 MOL      0.034295
     31 H11         0.9850    6.0290   -1.5860 hc        1 MOL      0.034295
     32 H12         2.1150    6.2500    0.6230 hc        1 MOL     -0.030018
     33 H13         1.3740    7.8620    0.7390 hc        1 MOL     -0.030018
     34 H14         2.6030    8.6740   -1.2520 hc        1 MOL      0.026935
     35 H15         3.4330    7.1730   -1.3010 hc        1 MOL      0.026935
     36 H16         3.3420    9.0800    1.1010 hx        1 MOL      0.118453
     37 H17         4.5550    9.1050   -0.2750 hx        1 MOL      0.118453
     38 H18         4.8980    6.7160    0.6080 hn        1 MOL      0.308948
     39 H19         5.5760    7.8800    1.5680 hn        1 MOL      0.308948
     40 H20         4.2030    7.2730    1.9980 hn        1 MOL      0.308948
     41 N4         -2.2330    4.8230   -1.5910 n         1 MOL     -0.249018
     42 C13        -3.3360    4.5450   -2.5250 c3        1 MOL      0.020965
     43 C14        -4.7310    4.3320   -1.8060 c         1 MOL      0.398507
     44 O6         -5.7490    4.5220   -2.4140 o         1 MOL     -0.525310
     45 C15        -3.0400    3.3770   -3.4210 c3        1 MOL     -0.271272
     46 C16        -2.5800    2.1570   -2.6890 c         1 MOL      0.808038
     47 O7         -3.4020    1.2750   -2.2990 o         1 MOL     -0.744201
     48 O8         -1.3720    1.8670   -2.6290 o         1 MOL     -0.744201
     49 H21        -1.7930    4.0430   -1.1110 hn        1 MOL      0.134072
     50 H22        -3.4340    5.3480   -3.2590 h1        1 MOL      0.107925
     51 H23        -2.2810    3.6430   -4.1460 hc        1 MOL      0.081746
     52 H24        -3.9520    3.1090   -3.9670 hc        1 MOL      0.081746
     53 N5         -4.8000    3.7380   -0.5940 n         1 MOL     -0.090361
     54 C17        -6.0780    3.5470    0.1570 c3        1 MOL     -0.283709
     55 C18        -6.6740    2.1070    0.0950 c         1 MOL      0.626415
     56 O9         -7.7190    1.9310    0.6590 o         1 MOL     -0.588657
     57 H25        -3.9200    3.5560   -0.1320 hn        1 MOL      0.153971
     58 H26        -6.8270    4.3040   -0.0690 h1        1 MOL      0.134855
     59 H27        -5.7560    3.7040    1.1940 h1        1 MOL      0.134855
     60 N6         -6.0340    1.1190   -0.5210 n         1 MOL     -0.209867
     61 C19        -6.6150   -0.1790   -0.7730 c3        1 MOL     -0.034480
     62 C20        -6.6410   -1.2170    0.4110 c         1 MOL      0.323128
     63 O10        -7.2630   -2.2890    0.2970 o         1 MOL     -0.484774
     64 C21        -6.0220   -0.8310   -1.9890 c3        1 MOL     -0.255251
     65 C22        -4.9400   -1.8890   -1.5920 c         1 MOL      0.842560
     66 N7         -4.9450   -3.0880   -1.9870 n         1 MOL     -0.858662
     67 O11        -4.0880   -1.5120   -0.8130 o         1 MOL     -0.714004
     68 H28        -5.0780    1.3630   -0.7160 hn        1 MOL      0.141629
     69 H29        -7.6830   -0.0220   -0.8510 h1        1 MOL      0.103672
     70 H30        -5.6130   -0.0940   -2.6860 hc        1 MOL      0.082526
     71 H31        -6.7720   -1.4170   -2.5140 hc        1 MOL      0.082526
     72 H32        -5.7390   -3.3880   -2.5350 hn        1 MOL      0.365463
     73 H33        -4.3680   -3.6960   -1.4220 hn        1 MOL      0.365463
     74 N8         -5.9610   -0.8430    1.5190 n         1 MOL     -0.051730
     75 C23        -6.1630   -1.5180    2.8170 c3        1 MOL     -0.297169
     76 C24        -5.1380   -2.5730    3.1200 c         1 MOL      0.571991
     77 O12        -5.2540   -3.1190    4.2440 o         1 MOL     -0.569028
     78 H34        -5.4510    0.0070    1.3770 hn        1 MOL      0.194386
     79 H35        -7.1600   -1.9580    2.7240 h1        1 MOL      0.137702
     80 H36        -6.0750   -0.8250    3.6560 h1        1 MOL      0.137702
     81 N9         -4.1550   -2.7470    2.2020 n         1 MOL     -0.149544
     82 C25        -2.8570   -3.5150    2.3910 c3        1 MOL     -0.216919
     83 C26        -1.6610   -2.8460    1.6610 c         1 MOL      0.688030
     84 O13        -1.8560   -1.9360    0.8220 o         1 MOL     -0.687734
     85 C27        -3.0450   -4.9770    2.0840 c3        1 MOL     -0.100265
     86 C28        -3.6900   -5.3250    0.7200 ca        1 MOL      0.186702
     87 C29        -5.0480   -5.5070    0.6790 ca        1 MOL     -0.258229
     88 C30        -2.9160   -5.6310   -0.3840 ca        1 MOL     -0.258229
     89 C31        -5.7170   -6.0550   -0.4480 ca        1 MOL     -0.126513
     90 C32        -3.5370   -6.0780   -1.5290 ca        1 MOL     -0.126513
     91 C33        -4.9890   -6.2550   -1.6140 ca        1 MOL      0.163822
     92 O14        -5.6590   -6.6110   -2.7330 oh        1 MOL     -0.386436
     93 H37        -4.1690   -2.2190    1.3390 hn        1 MOL      0.221936
     94 H38        -2.5950   -3.4380    3.4420 h1        1 MOL      0.103164
     95 H39        -3.7180   -5.4190    2.8060 hc        1 MOL      0.073758
     96 H40        -2.1520   -5.5740    2.2540 hc        1 MOL      0.073758
     97 H41        -5.6400   -5.0780    1.4820 ha        1 MOL      0.141480
     98 H42        -1.8530   -5.5090   -0.3060 ha        1 MOL      0.141480
     99 H43        -6.7860   -6.1240   -0.5570 ha        1 MOL      0.114254
    100 H44        -2.9490   -6.2660   -2.4190 ha        1 MOL      0.114254
    101 H45        -5.0970   -6.7350   -3.5050 ho        1 MOL      0.324300
    102 N10        -0.3730   -3.1280    1.9780 n         1 MOL     -0.496608
    103 C34         0.9160   -2.5600    1.5540 c3        1 MOL      0.092822
    104 C35         2.0100   -3.5690    1.1820 c         1 MOL      0.281190
    105 O15         2.1050   -4.6730    1.7750 o         1 MOL     -0.514031
    106 C36         1.6030   -1.5220    2.5010 c3        1 MOL     -0.031921
    107 C37         2.0430   -2.0330    3.8810 c3        1 MOL     -0.305877
    108 C38         0.5990   -0.4310    2.7730 c3        1 MOL     -0.094812
    109 C39         2.9340   -1.0760    4.7280 c3        1 MOL     -0.021627
    110 H46        -0.3160   -3.6870    2.8260 hn        1 MOL      0.307147
    111 H47         0.7300   -2.0340    0.6260 h1        1 MOL      0.129149
    112 H48         2.4600   -1.1540    1.9370 hc        1 MOL      0.060135
    113 H49         2.5870   -2.9680    3.7570 hc        1 MOL      0.108421
    114 H50         1.1820   -2.2760    4.5080 hc        1 MOL      0.108421
    115 H51         1.0250    0.3750    3.3640 hc        1 MOL      0.050154
    116 H52         0.1320   -0.1130    1.8440 hc        1 MOL      0.050154
    117 H53        -0.2500   -0.8910    3.2810 hc        1 MOL      0.050154
    118 H54         3.5030   -1.5890    5.4990 hc        1 MOL      0.025875
    119 H55         3.6410   -0.5090    4.1350 hc        1 MOL      0.025875
    120 H56         2.3080   -0.3430    5.2390 hc        1 MOL      0.025875
    121 N11         2.8690   -3.2010    0.2230 n         1 MOL     -0.103368
    122 C40         4.0010   -4.0000   -0.2510 c3        1 MOL      0.225729
    123 C41         5.3950   -3.5210    0.1750 c         1 MOL      0.230293
    124 O16         5.5680   -2.4660    0.7910 o         1 MOL     -0.308359
    125 C42         3.8880   -3.9680   -1.8100 c3        1 MOL     -0.462552
    126 O17         4.2590   -2.7120   -2.2690 oh        1 MOL     -0.297301
    127 H57         2.7020   -2.3280   -0.2570 hn        1 MOL      0.111508
    128 H58         3.8710   -5.0560    0.0160 h1        1 MOL      0.045684
    129 H59         2.8790   -4.2570   -2.1090 h1        1 MOL      0.168745
    130 H60         4.6220   -4.6970   -2.1410 h1        1 MOL      0.168745
    131 H61         4.1970   -2.5970   -3.2240 ho        1 MOL      0.375779
    132 N12         6.4720   -4.3000   -0.0600 n         1 MOL     -0.315790
    133 C43         7.8190   -3.9090    0.1950 c3        1 MOL      0.145392
    134 C44         8.1640   -2.6150   -0.6600 c         1 MOL      0.336912
    135 O18         8.8760   -1.6750   -0.2490 o         1 MOL     -0.480198
    136 C45         8.7340   -5.1050   -0.2390 c3        1 MOL     -0.288986
    137 H62         6.3200   -5.2170   -0.4570 hn        1 MOL      0.252964
    138 H63         8.0110   -3.6720    1.2450 h1        1 MOL      0.078656
    139 H64         8.7650   -5.3630   -1.3060 hc        1 MOL      0.090905
    140 H65         9.7740   -4.8870   -0.0340 hc        1 MOL      0.090905
    141 H66         8.3920   -5.9280    0.3800 hc        1 MOL      0.090905
    142 N13         7.6780   -2.5430   -1.9110 n         1 MOL     -0.219799
    143 C46         7.7740   -1.3620   -2.7690 c3        1 MOL      0.061550
    144 C47         7.2130   -0.1310   -2.0450 c         1 MOL      0.395926
    145 O19         7.9510    0.8650   -2.0100 o         1 MOL     -0.499242
    146 C48         7.0780   -1.7090   -4.0400 c3        1 MOL     -0.137911
    147 H67         7.2670   -3.3590   -2.3430 hn        1 MOL      0.179194
    148 H68         8.8000   -1.1820   -3.0890 h1        1 MOL      0.082713
    149 H69         7.5920   -2.4610   -4.6420 hc        1 MOL      0.033422
    150 H70         6.0480   -2.0240   -3.8680 hc        1 MOL      0.033422
    151 H71         6.9360   -0.8350   -4.6720 hc        1 MOL      0.033422
    152 N14         5.9840   -0.2270   -1.4750 n         1 MOL     -0.158552
    153 C49         5.2830    0.8370   -0.7720 c3        1 MOL     -0.141151
    154 C50         6.0480    1.3380    0.5220 c         1 MOL      0.451110
    155 O20         6.1280    2.5070    0.9030 o         1 MOL     -0.551047
    156 C51         3.8610    0.3920   -0.4570 c3        1 MOL      0.091335
    157 C52         2.9020    0.5160   -1.6920 c3        1 MOL      0.035898
    158 C53         1.4640    0.1800   -1.3760 c         1 MOL      0.821400
    159 O21         0.8150    0.9810   -0.6320 o         1 MOL     -0.810669
    160 O22         0.8420   -0.7230   -1.8780 o         1 MOL     -0.810669
    161 H72         5.4810   -1.0810   -1.6920 hn        1 MOL      0.129065
    162 H73         5.2350    1.6620   -1.4730 h1        1 MOL      0.090754
    163 H74         3.3760    1.0620    0.2530 hc        1 MOL      0.001331
    164 H75         3.9330   -0.6520   -0.1690 hc        1 MOL      0.001331
    165 H76         3.1400   -0.2230   -2.4630 hc        1 MOL     -0.050291
    166 H77         2.9600    1.5350   -2.0830 hc        1 MOL     -0.050291
    167 N15         6.5180    0.2940    1.2940 n         1 MOL     -0.004567
    168 C54         7.3460    0.4780    2.4880 c3        1 MOL     -0.409919
    169 H78         8.3950    0.5360    2.1960 h1        1 MOL      0.135981
    170 H79         7.0570    1.4010    2.9920 h1        1 MOL      0.135981
    171 H80         7.2030   -0.3650    3.1630 h1        1 MOL      0.135981
    172 H81         6.1300   -0.6160    1.1100 hn        1 MOL      0.077588
    173 Ca1        -1.5460   -0.4110   -1.2720 Ca        1 MOL      1.795416
    174 O23        -2.5790   -1.3070   -3.8190 oh        1 MOL     -0.769202
    175 H82        -2.3820   -0.8370   -4.6280 ho        1 MOL      0.376358
    176 H83        -3.2920   -1.8980   -4.0490 ho        1 MOL      0.376358
    177 O24        -0.9930   -2.9720   -2.1530 oh        1 MOL     -0.769202
    178 H84        -0.4110   -3.6690   -1.8530 ho        1 MOL      0.376358
    179 H85        -1.4820   -3.3600   -2.8770 ho        1 MOL      0.376358
@<TRIPOS>BOND
     1    1    2 1   
     2    1    4 1   
     3    1    5 1   
     4    1    6 1   
     5    2    3 2   
     6    2    7 1   
     7    7    8 1   
     8    7   15 1   
     9    8    9 1   
    10    8   11 1   
    11    8   16 1   
    12    9   10 2   
    13    9   19 1   
    14   11   12 1   
    15   11   17 1   
    16   11   18 1   
    17   12   13 1   
    18   12   14 1   
    19   19   20 1   
    20   19   28 1   
    21   20   21 1   
    22   20   23 1   
    23   20   29 1   
    24   21   22 2   
    25   21   41 1   
    26   23   24 1   
    27   23   30 1   
    28   23   31 1   
    29   24   25 1   
    30   24   32 1   
    31   24   33 1   
    32   25   26 1   
    33   25   34 1   
    34   25   35 1   
    35   26   27 1   
    36   26   36 1   
    37   26   37 1   
    38   27   38 1   
    39   27   39 1   
    40   27   40 1   
    41   41   42 1   
    42   41   49 1   
    43   42   43 1   
    44   42   45 1   
    45   42   50 1   
    46   43   44 2   
    47   43   53 1   
    48   45   46 1   
    49   45   51 1   
    50   45   52 1   
    51   46   47 1   
    52   46   48 1   
    53   53   54 1   
    54   53   57 1   
    55   54   55 1   
    56   54   58 1   
    57   54   59 1   
    58   55   56 2   
    59   55   60 1   
    60   60   61 1   
    61   60   68 1   
    62   61   62 1   
    63   61   64 1   
    64   61   69 1   
    65   62   63 2   
    66   62   74 1   
    67   64   65 1   
    68   64   70 1   
    69   64   71 1   
    70   65   66 1   
    71   65   67 2   
    72   66   72 1   
    73   66   73 1   
    74   74   75 1   
    75   74   78 1   
    76   75   76 1   
    77   75   79 1   
    78   75   80 1   
    79   76   77 2   
    80   76   81 1   
    81   81   82 1   
    82   81   93 1   
    83   82   83 1   
    84   82   85 1   
    85   82   94 1   
    86   83   84 2   
    87   83  102 1   
    88   85   86 1   
    89   85   95 1   
    90   85   96 1   
    91   86   87 ar  
    92   86   88 ar  
    93   87   89 ar  
    94   87   97 1   
    95   88   90 ar  
    96   88   98 1   
    97   89   91 ar  
    98   89   99 1   
    99   90   91 ar  
   100   90  100 1   
   101   91   92 1   
   102   92  101 1   
   103  102  103 1   
   104  102  110 1   
   105  103  104 1   
   106  103  106 1   
   107  103  111 1   
   108  104  105 2   
   109  104  121 1   
   110  106  107 1   
   111  106  108 1   
   112  106  112 1   
   113  107  109 1   
   114  107  113 1   
   115  107  114 1   
   116  108  115 1   
   117  108  116 1   
   118  108  117 1   
   119  109  118 1   
   120  109  119 1   
   121  109  120 1   
   122  121  122 1   
   123  121  127 1   
   124  122  123 1   
   125  122  125 1   
   126  122  128 1   
   127  123  124 2   
   128  123  132 1   
   129  125  126 1   
   130  125  129 1   
   131  125  130 1   
   132  126  131 1   
   133  132  133 1   
   134  132  137 1   
   135  133  134 1   
   136  133  136 1   
   137  133  138 1   
   138  134  135 2   
   139  134  142 1   
   140  136  139 1   
   141  136  140 1   
   142  136  141 1   
   143  142  143 1   
   144  142  147 1   
   145  143  144 1   
   146  143  146 1   
   147  143  148 1   
   148  144  145 2   
   149  144  152 1   
   150  146  149 1   
   151  146  150 1   
   152  146  151 1   
   153  152  153 1   
   154  152  161 1   
   155  153  154 1   
   156  153  156 1   
   157  153  162 1   
   158  154  155 2   
   159  154  167 1   
   160  156  157 1   
   161  156  163 1   
   162  156  164 1   
   163  157  158 1   
   164  157  165 1   
   165  157  166 1   
   166  158  159 1   
   167  158  160 1   
   168  167  168 1   
   169  167  172 1   
   170  168  169 1   
   171  168  170 1   
   172  168  171 1   
   173  174  175 1   
   174  174  176 1   
   175  177  178 1   
   176  177  179 1   
@<TRIPOS>SUBSTRUCTURE
     1 MOL         1 TEMP              0 ****  ****    0 ROOT
