@<TRIPOS>MOLECULE
MOL
  182   178     1     0     0
SMALL
resp


@<TRIPOS>ATOM
      1 C1          2.4630    1.8600    5.5710 c3        1 MOL     -0.345760
      2 C2          1.6180    1.8770    4.3420 c         1 MOL      0.754311
      3 O1          2.1900    2.1510    3.2830 o         1 MOL     -0.624656
      4 H1          3.4860    2.1360    5.3130 hc        1 MOL      0.091763
      5 H2          2.0670    2.5720    6.2950 hc        1 MOL      0.091763
      6 H3          2.4570    0.8590    6.0040 hc        1 MOL      0.091763
      7 N1          0.3030    1.5440    4.3160 n         1 MOL     -0.604221
      8 C3         -0.4210    1.5980    3.1110 c3        1 MOL      0.056266
      9 C4         -0.6950    3.0690    2.6680 c         1 MOL      0.516268
     10 O2         -1.5840    3.7430    3.1510 o         1 MOL     -0.510163
     11 C5         -1.7400    0.8430    3.3380 c3        1 MOL     -0.340524
     12 C6         -2.6770    0.8530    2.1180 c         1 MOL      0.705326
     13 O3         -2.2300    1.0830    1.0040 o         1 MOL     -0.657436
     14 O4         -3.8380    0.5120    2.3660 o         1 MOL     -0.657436
     15 H4         -0.1890    1.4560    5.1960 hn        1 MOL      0.335095
     16 H5          0.1660    1.1580    2.3030 h1        1 MOL      0.073724
     17 H6         -2.2450    1.3380    4.1550 hc        1 MOL      0.100504
     18 H7         -1.4740   -0.1870    3.5920 hc        1 MOL      0.100504
     19 N2          0.0450    3.5770    1.6700 n         1 MOL     -0.271342
     20 C7          0.2140    4.8830    1.1470 c3        1 MOL      0.068439
     21 C8         -1.0820    5.3460    0.5040 c         1 MOL      0.221243
     22 O5         -1.5850    6.4150    0.8560 o         1 MOL     -0.518930
     23 C9          1.3850    4.8670    0.1990 c3        1 MOL     -0.177956
     24 C10         1.8630    6.2220   -0.3910 c3        1 MOL     -0.115014
     25 C11         1.0320    6.7270   -1.6400 c3        1 MOL      0.108883
     26 C12         1.6200    7.9060   -2.3690 c3        1 MOL     -0.025493
     27 N3          1.7690    9.0870   -1.5330 n4        1 MOL     -0.197659
     28 H8          0.6040    2.8780    1.1950 hn        1 MOL      0.216170
     29 H9          0.4460    5.5640    1.9670 h1        1 MOL      0.083675
     30 H10         1.1830    4.0660   -0.5040 hc        1 MOL      0.136494
     31 H11         2.1930    4.5110    0.8600 hc        1 MOL      0.136494
     32 H12         2.8920    6.1660   -0.7600 hc        1 MOL      0.033266
     33 H13         1.7820    6.9200    0.4330 hc        1 MOL      0.033266
     34 H14        -0.0070    6.9610   -1.4040 hc        1 MOL      0.008832
     35 H15         1.1090    5.8810   -2.3230 hc        1 MOL      0.008832
     36 H16         0.8920    8.0840   -3.1610 hx        1 MOL      0.072452
     37 H17         2.5960    7.6270   -2.7810 hx        1 MOL      0.072452
     38 H18         2.5130    8.8910   -0.8770 hn        1 MOL      0.293865
     39 H19         1.9500    9.9360   -2.0370 hn        1 MOL      0.293865
     40 H20         0.9300    9.2150   -0.9950 hn        1 MOL      0.293865
     41 N4         -1.7080    4.6280   -0.4320 n         1 MOL     -0.103147
     42 C13        -2.8550    5.0490   -1.1490 c3        1 MOL     -0.000778
     43 C14        -4.2090    4.6790   -0.4630 c         1 MOL      0.439043
     44 O6         -5.2670    5.0910   -0.9550 o         1 MOL     -0.551637
     45 C15        -2.8330    4.4840   -2.5930 c3        1 MOL     -0.138436
     46 C16        -3.0470    2.9790   -2.6660 c         1 MOL      0.898941
     47 O7         -3.0210    2.2660   -1.6900 o         1 MOL     -0.752493
     48 O8         -3.3040    2.4740   -3.7930 o         1 MOL     -0.752493
     49 H21        -1.1610    3.8440   -0.7430 hn        1 MOL      0.133682
     50 H22        -2.7830    6.1440   -1.1640 h1        1 MOL      0.071067
     51 H23        -1.8410    4.7400   -2.9700 hc        1 MOL      0.005858
     52 H24        -3.5990    4.9420   -3.2170 hc        1 MOL      0.005858
     53 N5         -4.1680    3.9380    0.6220 n         1 MOL     -0.148957
     54 C17        -5.2780    3.4610    1.4110 c3        1 MOL     -0.241223
     55 C18        -5.9710    2.2580    0.6950 c         1 MOL      0.550328
     56 O9         -7.0660    1.9080    1.2580 o         1 MOL     -0.580750
     57 H25        -3.2530    3.5560    0.8000 hn        1 MOL      0.212722
     58 H26        -5.9490    4.3000    1.5810 h1        1 MOL      0.135413
     59 H27        -4.9360    3.1410    2.3900 h1        1 MOL      0.135413
     60 N6         -5.4740    1.5310   -0.3350 n         1 MOL     -0.255618
     61 C19        -6.3640    0.5360   -0.9150 c3        1 MOL     -0.212478
     62 C20        -6.6270   -0.8040   -0.1130 c         1 MOL      0.436615
     63 O10        -7.3800   -1.6770   -0.5340 o         1 MOL     -0.533479
     64 C21        -5.8920    0.1440   -2.3390 c3        1 MOL     -0.068756
     65 C22        -4.5170   -0.6970   -2.2640 c         1 MOL      0.561542
     66 N7         -4.2200   -1.5060   -3.3110 n         1 MOL     -0.786665
     67 O11        -3.7370   -0.5610   -1.4040 o         1 MOL     -0.516666
     68 H28        -4.5060    1.5940   -0.5880 hn        1 MOL      0.221585
     69 H29        -7.3710    0.9630   -0.9480 h1        1 MOL      0.157963
     70 H30        -5.8870    0.8850   -3.1360 hc        1 MOL      0.065274
     71 H31        -6.6300   -0.5540   -2.7280 hc        1 MOL      0.065274
     72 H32        -4.9210   -1.6170   -4.0250 hn        1 MOL      0.355914
     73 H33        -3.4120   -2.1040   -3.2290 hn        1 MOL      0.355914
     74 N8         -5.9660   -0.9620    1.0490 n         1 MOL     -0.021292
     75 C23        -6.0900   -2.1260    1.9280 c3        1 MOL     -0.416810
     76 C24        -4.8230   -3.1270    1.7900 c         1 MOL      0.588111
     77 O12        -4.8350   -4.3090    2.2170 o         1 MOL     -0.517877
     78 H34        -5.3240   -0.2330    1.3180 hn        1 MOL      0.212540
     79 H35        -6.9540   -2.7030    1.6090 h1        1 MOL      0.170255
     80 H36        -6.0870   -1.8640    2.9820 h1        1 MOL      0.170255
     81 N9         -3.6900   -2.6640    1.1850 n         1 MOL     -0.584539
     82 C25        -2.5490   -3.5220    0.7070 c3        1 MOL      0.412418
     83 C26        -1.2600   -2.7480    0.6900 c         1 MOL      0.446233
     84 O13        -1.2420   -1.5670    0.3340 o         1 MOL     -0.549137
     85 C27        -2.8010   -4.2100   -0.7020 c3        1 MOL      0.109018
     86 C28        -3.9530   -5.2220   -0.7300 ca        1 MOL     -0.104742
     87 C29        -3.7660   -6.5550   -0.4040 ca        1 MOL     -0.179439
     88 C30        -5.2470   -4.7750   -1.0650 ca        1 MOL     -0.179439
     89 C31        -4.8380   -7.4370   -0.4930 ca        1 MOL     -0.091769
     90 C32        -6.3460   -5.6800   -1.0640 ca        1 MOL     -0.091769
     91 C33        -6.1080   -7.0110   -0.8550 ca        1 MOL      0.185879
     92 O14        -7.1720   -7.9290   -0.8880 oh        1 MOL     -0.507803
     93 H37        -3.5780   -1.6640    1.1250 hn        1 MOL      0.302874
     94 H38        -2.4500   -4.2990    1.4690 h1        1 MOL     -0.026980
     95 H39        -1.8880   -4.7100   -1.0230 hc        1 MOL     -0.008068
     96 H40        -2.9780   -3.4310   -1.4380 hc        1 MOL     -0.008068
     97 H41        -2.7700   -6.9160   -0.1590 ha        1 MOL      0.119013
     98 H42        -5.3390   -3.7180   -1.2630 ha        1 MOL      0.119013
     99 H43        -4.6840   -8.4950   -0.4140 ha        1 MOL      0.110248
    100 H44        -7.3750   -5.3910   -1.1850 ha        1 MOL      0.110248
    101 H45        -7.9680   -7.4720   -1.1480 ho        1 MOL      0.377984
    102 N10        -0.1630   -3.4800    0.9900 n         1 MOL     -0.578458
    103 C34         1.1970   -2.9850    1.0730 c3        1 MOL      0.106522
    104 C35         2.0680   -3.7140    0.0190 c         1 MOL      0.578982
    105 O15         2.2300   -4.9270    0.1570 o         1 MOL     -0.564916
    106 C36         1.7820   -3.0820    2.5350 c3        1 MOL      0.058574
    107 C37         0.8850   -2.3400    3.6220 c3        1 MOL      0.133861
    108 C38         3.2280   -2.5800    2.7750 c3        1 MOL     -0.297149
    109 C39         1.1330   -2.9700    4.9920 c3        1 MOL     -0.324922
    110 H46        -0.3690   -4.4520    1.2060 hn        1 MOL      0.294728
    111 H47         1.1290   -1.9230    0.7960 h1        1 MOL      0.064303
    112 H48         1.7540   -4.1250    2.8430 hc        1 MOL      0.040653
    113 H49        -0.1850   -2.3590    3.4250 hc        1 MOL      0.009882
    114 H50         1.0720   -1.2730    3.6980 hc        1 MOL      0.009882
    115 H51         3.8560   -3.1240    2.0720 hc        1 MOL      0.070977
    116 H52         3.2600   -1.4890    2.7830 hc        1 MOL      0.070977
    117 H53         3.6720   -2.8270    3.7380 hc        1 MOL      0.070977
    118 H54         0.3930   -2.5200    5.6570 hc        1 MOL      0.074400
    119 H55         1.1330   -4.0550    4.9980 hc        1 MOL      0.074400
    120 H56         2.0740   -2.6510    5.4450 hc        1 MOL      0.074400
    121 N11         2.6980   -2.9620   -0.8820 n         1 MOL     -0.394999
    122 C40         3.8510   -3.4510   -1.6390 c3        1 MOL      0.013048
    123 C41         5.1990   -3.3840   -0.9060 c         1 MOL      0.463376
    124 O16         5.3650   -2.5850   -0.0270 o         1 MOL     -0.323806
    125 C42         3.9730   -2.5830   -2.8840 c3        1 MOL     -0.107820
    126 O17         4.0890   -1.1480   -2.6050 oh        1 MOL     -0.284879
    127 H57         2.5180   -1.9730   -0.9970 hn        1 MOL      0.330276
    128 H58         3.6190   -4.4460   -2.0380 h1        1 MOL      0.092066
    129 H59         3.0840   -2.7710   -3.4760 h1        1 MOL      0.070249
    130 H60         4.8190   -2.7810   -3.5470 h1        1 MOL      0.070249
    131 H61         3.9120   -0.5860   -3.3620 ho        1 MOL      0.329191
    132 N12         6.2360   -4.0500   -1.4590 n         1 MOL     -0.446325
    133 C43         7.5970   -3.8750   -0.9270 c3        1 MOL      0.126717
    134 C44         8.0880   -2.3980   -1.0100 c         1 MOL      0.527536
    135 O18         8.7600   -1.9190   -0.1030 o         1 MOL     -0.524886
    136 C45         8.4940   -4.8460   -1.6450 c3        1 MOL     -0.322053
    137 H62         6.0990   -4.7670   -2.1680 hn        1 MOL      0.271551
    138 H63         7.5380   -4.1320    0.1280 h1        1 MOL      0.080626
    139 H64         8.8940   -4.3990   -2.5620 hc        1 MOL      0.099691
    140 H65         9.3600   -5.0280   -1.0200 hc        1 MOL      0.099691
    141 H66         8.0710   -5.8380   -1.7800 hc        1 MOL      0.099691
    142 N13         7.6010   -1.6680   -2.0490 n         1 MOL     -0.498003
    143 C46         8.0490   -0.2030   -2.1410 c3        1 MOL      0.334627
    144 C47         7.2680    0.7230   -1.1550 c         1 MOL      0.297823
    145 O19         7.7930    1.7930   -0.8250 o         1 MOL     -0.531631
    146 C48         7.8510    0.3080   -3.5180 c3        1 MOL     -0.339194
    147 H67         6.9440   -2.0750   -2.6940 hn        1 MOL      0.296872
    148 H68         9.1050   -0.0470   -1.9190 h1        1 MOL      0.051274
    149 H69         8.2480   -0.4810   -4.1440 hc        1 MOL      0.080890
    150 H70         6.7980    0.5460   -3.6870 hc        1 MOL      0.080890
    151 H71         8.3850    1.2480   -3.6470 hc        1 MOL      0.080890
    152 N14         6.0810    0.3570   -0.6720 n         1 MOL      0.222611
    153 C49         5.4230    1.1260    0.4110 c3        1 MOL     -0.272135
    154 C50         6.1160    0.7770    1.7460 c         1 MOL      0.538793
    155 O20         6.1730    1.6640    2.5920 o         1 MOL     -0.563402
    156 C51         3.9580    0.6450    0.4960 c3        1 MOL      0.304931
    157 C52         3.1060    1.3420   -0.5710 c3        1 MOL     -0.159158
    158 C53         1.6360    0.7900   -0.6330 c         1 MOL      0.874561
    159 O21         1.4410   -0.1950   -1.3430 o         1 MOL     -0.860357
    160 O22         0.7630    1.4460   -0.0460 o         1 MOL     -0.860357
    161 H72         5.6870   -0.5350   -0.9230 hn        1 MOL     -0.366706
    162 H73         5.5170    2.1790    0.1320 h1        1 MOL      0.123103
    163 H74         3.5580    0.9780    1.4530 hc        1 MOL     -0.012405
    164 H75         3.9930   -0.4330    0.5390 hc        1 MOL     -0.012405
    165 H76         3.6210    1.1910   -1.5210 hc        1 MOL     -0.023678
    166 H77         3.1500    2.4130   -0.3870 hc        1 MOL     -0.023678
    167 N15         6.5850   -0.4430    1.9120 n         1 MOL     -0.121302
    168 C54         7.4160   -0.8500    3.0890 c3        1 MOL     -0.332771
    169 H78         8.4520   -0.5560    2.9220 h1        1 MOL      0.131876
    170 H79         7.0410   -0.3600    3.9870 h1        1 MOL      0.131876
    171 H80         7.3630   -1.9320    3.2160 h1        1 MOL      0.131876
    172 H81         6.4900   -1.0530    1.1160 hn        1 MOL      0.140455
    173 Ca1        -1.2450    0.4200   -1.2590 Ca        1 MOL      1.790640
    174 O23        -0.0310    2.5650   -2.6520 oh        1 MOL     -0.871301
    175 H82        -0.4750    3.0820   -3.3280 ho        1 MOL      0.412643
    176 H83         0.8990    2.6300   -2.8740 ho        1 MOL      0.412643
    177 O24        -1.6650    0.4520   -3.8830 oh        1 MOL     -0.871301
    178 H84        -1.1980    0.5500   -4.7160 ho        1 MOL      0.412643
    179 H85        -2.4540    0.9900   -3.9800 ho        1 MOL      0.412643
    180 O25        -1.1620   -1.9370   -2.5200 oh        1 MOL     -0.871301
    181 H86        -1.0100   -1.4050   -3.2980 ho        1 MOL      0.412643
    182 H87        -0.7810   -2.7830   -2.7370 ho        1 MOL      0.412643
@<TRIPOS>BOND
     1    1    2 1   
     2    1    4 1   
     3    1    5 1   
     4    1    6 1   
     5    2    3 2   
     6    2    7 1   
     7    7    8 1   
     8    7   15 1   
     9    8    9 1   
    10    8   11 1   
    11    8   16 1   
    12    9   10 2   
    13    9   19 1   
    14   11   12 1   
    15   11   17 1   
    16   11   18 1   
    17   12   13 1   
    18   12   14 1   
    19   19   20 1   
    20   19   28 1   
    21   20   21 1   
    22   20   23 1   
    23   20   29 1   
    24   21   22 2   
    25   21   41 1   
    26   23   24 1   
    27   23   30 1   
    28   23   31 1   
    29   24   25 1   
    30   24   32 1   
    31   24   33 1   
    32   25   26 1   
    33   25   34 1   
    34   25   35 1   
    35   26   27 1   
    36   26   36 1   
    37   26   37 1   
    38   27   38 1   
    39   27   39 1   
    40   27   40 1   
    41   41   42 1   
    42   41   49 1   
    43   42   43 1   
    44   42   45 1   
    45   42   50 1   
    46   43   44 2   
    47   43   53 1   
    48   45   46 1   
    49   45   51 1   
    50   45   52 1   
    51   46   47 1   
    52   46   48 1   
    53   53   54 1   
    54   53   57 1   
    55   54   55 1   
    56   54   58 1   
    57   54   59 1   
    58   55   56 2   
    59   55   60 1   
    60   60   61 1   
    61   60   68 1   
    62   61   62 1   
    63   61   64 1   
    64   61   69 1   
    65   62   63 2   
    66   62   74 1   
    67   64   65 1   
    68   64   70 1   
    69   64   71 1   
    70   65   66 1   
    71   65   67 2   
    72   66   72 1   
    73   66   73 1   
    74   74   75 1   
    75   74   78 1   
    76   75   76 1   
    77   75   79 1   
    78   75   80 1   
    79   76   77 2   
    80   76   81 1   
    81   81   82 1   
    82   81   93 1   
    83   82   83 1   
    84   82   85 1   
    85   82   94 1   
    86   83   84 2   
    87   83  102 1   
    88   85   86 1   
    89   85   95 1   
    90   85   96 1   
    91   86   87 ar  
    92   86   88 ar  
    93   87   89 ar  
    94   87   97 1   
    95   88   90 ar  
    96   88   98 1   
    97   89   91 ar  
    98   89   99 1   
    99   90   91 ar  
   100   90  100 1   
   101   91   92 1   
   102   92  101 1   
   103  102  103 1   
   104  102  110 1   
   105  103  104 1   
   106  103  106 1   
   107  103  111 1   
   108  104  105 2   
   109  104  121 1   
   110  106  107 1   
   111  106  108 1   
   112  106  112 1   
   113  107  109 1   
   114  107  113 1   
   115  107  114 1   
   116  108  115 1   
   117  108  116 1   
   118  108  117 1   
   119  109  118 1   
   120  109  119 1   
   121  109  120 1   
   122  121  122 1   
   123  121  127 1   
   124  122  123 1   
   125  122  125 1   
   126  122  128 1   
   127  123  124 2   
   128  123  132 1   
   129  125  126 1   
   130  125  129 1   
   131  125  130 1   
   132  126  131 1   
   133  132  133 1   
   134  132  137 1   
   135  133  134 1   
   136  133  136 1   
   137  133  138 1   
   138  134  135 2   
   139  134  142 1   
   140  136  139 1   
   141  136  140 1   
   142  136  141 1   
   143  142  143 1   
   144  142  147 1   
   145  143  144 1   
   146  143  146 1   
   147  143  148 1   
   148  144  145 2   
   149  144  152 1   
   150  146  149 1   
   151  146  150 1   
   152  146  151 1   
   153  152  153 1   
   154  152  161 1   
   155  153  154 1   
   156  153  156 1   
   157  153  162 1   
   158  154  155 2   
   159  154  167 1   
   160  156  157 1   
   161  156  163 1   
   162  156  164 1   
   163  157  158 1   
   164  157  165 1   
   165  157  166 1   
   166  158  159 1   
   167  158  160 1   
   168  167  168 1   
   169  167  172 1   
   170  168  169 1   
   171  168  170 1   
   172  168  171 1   
   173  174  175 1   
   174  174  176 1   
   175  177  178 1   
   176  177  179 1   
   177  180  181 1   
   178  180  182 1   
@<TRIPOS>SUBSTRUCTURE
     1 MOL         1 TEMP              0 ****  ****    0 ROOT
