@<TRIPOS>MOLECULE
MOL
  169   169     1     0     0
SMALL
resp


@<TRIPOS>ATOM
      1 C1          0.3810    3.0640    5.9460 c3        1 MOL     -0.303498
      2 C2         -0.0800    3.0500    4.4110 c         1 MOL      0.646054
      3 O1          0.6340    3.4990    3.5590 o         1 MOL     -0.533264
      4 H1          1.4590    3.2190    6.0010 hc        1 MOL      0.071971
      5 H2         -0.1290    3.8710    6.4720 hc        1 MOL      0.071971
      6 H3          0.1280    2.1110    6.4110 hc        1 MOL      0.071971
      7 N1         -1.2370    2.4300    4.1530 n         1 MOL     -0.556492
      8 C3         -1.8510    2.2700    2.8460 c3        1 MOL      0.123906
      9 C4         -2.3080    3.5830    2.2500 c         1 MOL      0.592043
     10 O2         -3.1050    4.3180    2.8230 o         1 MOL     -0.609065
     11 C5         -3.0270    1.3470    2.9030 c3        1 MOL     -0.418449
     12 C6         -3.6630    1.0730    1.5170 c         1 MOL      0.918746
     13 O3         -3.2170    1.5480    0.4170 o         1 MOL     -0.756639
     14 O4         -4.5210    0.2320    1.4570 o         1 MOL     -0.756639
     15 H4         -1.7640    2.3050    5.0060 hn        1 MOL      0.297253
     16 H5         -1.0710    1.8610    2.2050 h1        1 MOL      0.080315
     17 H6         -3.8740    1.7320    3.4610 hc        1 MOL      0.111354
     18 H7         -2.6910    0.3910    3.3280 hc        1 MOL      0.111354
     19 N2         -1.9390    3.9030    0.9870 n         1 MOL     -0.410967
     20 C7         -1.9680    5.2090    0.3670 c3        1 MOL      0.139847
     21 C8         -2.8880    5.1450   -0.9010 c         1 MOL      0.393943
     22 O5         -3.1900    6.2630   -1.4650 o         1 MOL     -0.573686
     23 C9         -0.5830    5.6830    0.0360 c3        1 MOL     -0.118420
     24 H8         -1.3320    3.2150    0.5550 hn        1 MOL      0.290036
     25 H9         -2.4130    5.9990    0.9720 h1        1 MOL      0.063089
     26 H10        -0.1000    5.9690    0.9690 hc        1 MOL      0.026292
     27 H11         0.1440    5.0360   -0.4530 hc        1 MOL      0.026292
     28 H12        -0.6860    6.5700   -0.5960 hc        1 MOL      0.026292
     29 N3         -3.4620    3.9870   -1.3710 n         1 MOL     -0.209626
     30 C10        -4.4760    3.9140   -2.4230 c3        1 MOL     -0.040596
     31 C11        -5.8050    3.2060   -1.8930 c         1 MOL      0.481606
     32 O6         -6.8160    3.3870   -2.5410 o         1 MOL     -0.557922
     33 C12        -3.9310    3.0770   -3.6400 c3        1 MOL      0.046102
     34 C13        -3.2880    1.7250   -3.2050 c         1 MOL      0.612262
     35 O7         -4.0250    0.9530   -2.5330 o         1 MOL     -0.707022
     36 O8         -2.0560    1.5120   -3.2510 o         1 MOL     -0.707022
     37 H13        -3.2480    3.1580   -0.8370 hn        1 MOL      0.176683
     38 H14        -4.8070    4.8510   -2.8710 h1        1 MOL      0.101972
     39 H15        -3.3020    3.6810   -4.3060 hc        1 MOL     -0.013652
     40 H16        -4.7260    2.7820   -4.3260 hc        1 MOL     -0.013652
     41 N4         -5.8480    2.7470   -0.6300 n         1 MOL     -0.254611
     42 C14        -7.0370    2.2480    0.1300 c3        1 MOL     -0.289994
     43 C15        -7.4080    0.8450   -0.1790 c         1 MOL      0.549367
     44 O9         -8.4450    0.3610    0.2960 o         1 MOL     -0.624640
     45 H17        -4.9590    2.6010   -0.1820 hn        1 MOL      0.182195
     46 H18        -7.8490    2.9710   -0.0030 h1        1 MOL      0.152356
     47 H19        -6.8030    2.1890    1.1900 h1        1 MOL      0.152356
     48 N5         -6.6580    0.0400   -0.9020 n         1 MOL     -0.149122
     49 C16        -6.9840   -1.3500   -1.3240 c3        1 MOL     -0.190963
     50 C17        -6.8770   -2.3750   -0.1930 c         1 MOL      0.681514
     51 O10        -7.3480   -3.4610   -0.4160 o         1 MOL     -0.606676
     52 C18        -6.1130   -1.7160   -2.5940 c3        1 MOL     -0.052795
     53 C19        -4.6630   -1.9770   -2.2830 c         1 MOL      0.632709
     54 N6         -3.8330   -2.3690   -3.2130 n         1 MOL     -0.838479
     55 O11        -4.1960   -1.8280   -1.1710 o         1 MOL     -0.559353
     56 H20        -5.8010    0.4250   -1.2610 hn        1 MOL      0.148058
     57 H21        -8.0460   -1.4620   -1.5580 h1        1 MOL      0.127813
     58 H22        -6.2550   -0.9720   -3.3770 hc        1 MOL      0.055178
     59 H23        -6.5490   -2.5870   -3.0920 hc        1 MOL      0.055178
     60 H24        -4.2660   -2.5890   -4.1000 hn        1 MOL      0.382688
     61 H25        -2.8960   -2.6580   -2.9680 hn        1 MOL      0.382688
     62 N7         -6.3830   -2.0310    1.0250 n         1 MOL     -0.417016
     63 C20        -6.2820   -2.8530    2.2860 c3        1 MOL     -0.060204
     64 C21        -5.0320   -3.7760    2.2160 c         1 MOL      0.428724
     65 O12        -4.9140   -4.5610    3.1740 o         1 MOL     -0.575987
     66 H26        -5.8630   -1.1630    1.0190 hn        1 MOL      0.323740
     67 H27        -7.1330   -3.4970    2.4730 h1        1 MOL      0.087567
     68 H28        -6.2070   -2.3000    3.2230 h1        1 MOL      0.087567
     69 N8         -4.2260   -3.5650    1.2150 n         1 MOL     -0.054068
     70 C22        -2.9470   -4.2620    1.1110 c3        1 MOL     -0.038194
     71 C23        -1.7760   -3.2750    0.8450 c         1 MOL      0.500809
     72 O13        -1.9450   -2.0670    0.6950 o         1 MOL     -0.577840
     73 C24        -2.9550   -5.3100   -0.0700 c3        1 MOL      0.361024
     74 C25        -4.0870   -6.3130    0.2650 c3        1 MOL     -0.455097
     75 O14        -3.2820   -4.6860   -1.2340 oh        1 MOL     -0.503876
     76 H29        -4.4020   -2.8360    0.5360 hn        1 MOL      0.092334
     77 H30        -2.7690   -4.8880    1.9770 h1        1 MOL      0.045170
     78 H31        -2.0260   -5.8880   -0.0700 h1        1 MOL     -0.020886
     79 H32        -2.5190   -4.1990   -1.5240 ho        1 MOL      0.309440
     80 H33        -5.1130   -5.9460    0.2020 hc        1 MOL      0.115405
     81 H34        -4.0670   -7.1260   -0.4470 hc        1 MOL      0.115405
     82 H35        -3.9780   -6.5750    1.3190 hc        1 MOL      0.115405
     83 N9         -0.6000   -3.8710    0.9440 n         1 MOL     -0.486917
     84 C26         0.6570   -3.1960    0.9430 c3        1 MOL      0.065166
     85 C27         1.4250   -3.3190   -0.4100 c         1 MOL      0.582333
     86 O15         1.6800   -4.4150   -0.9200 o         1 MOL     -0.591062
     87 C28         1.6070   -3.6690    2.0870 c3        1 MOL     -0.115366
     88 C29         1.1060   -2.9050    3.3640 c3        1 MOL      0.198733
     89 C30         3.1120   -3.3330    1.8430 c3        1 MOL     -0.101338
     90 C31         2.0310   -3.0870    4.6080 c3        1 MOL     -0.217422
     91 H36        -0.6130   -4.8580    1.1740 hn        1 MOL      0.288908
     92 H37         0.5210   -2.1220    1.1110 h1        1 MOL      0.133940
     93 H38         1.3860   -4.7140    2.2990 hc        1 MOL      0.047063
     94 H39         0.1890   -3.3520    3.7600 hc        1 MOL     -0.018983
     95 H40         0.9650   -1.8390    3.2260 hc        1 MOL     -0.018983
     96 H41         3.2090   -2.2430    1.7880 hc        1 MOL      0.018746
     97 H42         3.8210   -3.6290    2.6170 hc        1 MOL      0.018746
     98 H43         3.4780   -3.7500    0.9130 hc        1 MOL      0.018746
     99 H44         2.1930   -4.1470    4.7730 hc        1 MOL      0.038135
    100 H45         2.9770   -2.5330    4.6150 hc        1 MOL      0.038135
    101 H46         1.4160   -2.6470    5.3890 hc        1 MOL      0.038135
    102 N10         1.6600   -2.1330   -1.0000 n         1 MOL     -0.391059
    103 C32         2.7050   -1.8630   -2.0360 c3        1 MOL      0.161075
    104 C33         4.0040   -1.3490   -1.3350 c         1 MOL      0.395751
    105 O16         3.9720   -0.8050   -0.2370 o         1 MOL     -0.222416
    106 C34         2.1640   -0.8500   -3.0220 c3        1 MOL     -0.114814
    107 C35         0.7700   -1.2220   -3.5950 c         1 MOL      0.627223
    108 O17         0.6890   -1.5370   -4.8230 o         1 MOL     -0.667385
    109 O18        -0.2650   -1.0550   -2.8930 o         1 MOL     -0.667385
    110 H47         1.0370   -1.4110   -0.6590 hn        1 MOL      0.060876
    111 H48         2.8980   -2.7970   -2.5720 h1        1 MOL      0.035124
    112 H49         2.9520   -0.8290   -3.7800 hc        1 MOL      0.039144
    113 H50         2.0660    0.1240   -2.5400 hc        1 MOL      0.039144
    114 N11         5.1300   -1.4520   -2.0450 n         1 MOL     -0.690825
    115 C36         6.4610   -1.1660   -1.4310 c3        1 MOL      0.461513
    116 C37         6.6700    0.1950   -0.7700 c         1 MOL      0.157204
    117 O19         7.2660    0.3260    0.3170 o         1 MOL     -0.429211
    118 C38         7.5910   -1.4740   -2.4180 c3        1 MOL     -0.430184
    119 C39         8.9510   -1.3600   -1.7350 ca        1 MOL      0.284570
    120 C40         9.7690   -0.2710   -2.0980 ca        1 MOL     -0.276076
    121 C41         9.3730   -2.3230   -0.8420 ca        1 MOL     -0.276076
    122 C42        11.0620   -0.1860   -1.5200 ca        1 MOL      0.017745
    123 C43        10.6560   -2.3230   -0.3450 ca        1 MOL      0.017745
    124 C44        11.4920   -1.2950   -0.7250 ca        1 MOL     -0.268005
    125 H51         5.0880   -1.8430   -2.9640 hn        1 MOL      0.365665
    126 H52         6.6540   -1.8380   -0.5900 h1        1 MOL      0.024126
    127 H53         7.6250   -0.7470   -3.2260 hc        1 MOL      0.111686
    128 H54         7.3670   -2.4190   -2.9210 hc        1 MOL      0.111686
    129 H55         9.3610    0.4710   -2.7680 ha        1 MOL      0.135357
    130 H56         8.7260   -3.1320   -0.5320 ha        1 MOL      0.135357
    131 H57        11.7730    0.6050   -1.7130 ha        1 MOL      0.089792
    132 H58        11.0070   -3.0200    0.4150 ha        1 MOL      0.089792
    133 H59        12.4450   -1.2050   -0.2070 ha        1 MOL      0.127148
    134 N12         6.2750    1.3090   -1.4830 n         1 MOL     -0.071043
    135 C45         6.1700    2.6160   -0.8040 c3        1 MOL      0.160275
    136 C46         5.4870    2.6350    0.6140 c         1 MOL      0.162543
    137 O20         5.7470    3.5290    1.3870 o         1 MOL     -0.474662
    138 C47         5.3890    3.5350   -1.7920 c3        1 MOL     -0.008347
    139 C48         5.5350    2.9550   -3.1730 c3        1 MOL     -0.125009
    140 C49         5.7790    1.4940   -2.8640 c3        1 MOL      0.008986
    141 H60         7.1870    2.9870   -0.6780 h1        1 MOL      0.023998
    142 H61         4.3490    3.5510   -1.4960 hc        1 MOL      0.020257
    143 H62         5.9060    4.4850   -1.6470 hc        1 MOL      0.020257
    144 H63         4.5750    3.1310   -3.6530 hc        1 MOL      0.059534
    145 H64         6.3280    3.3800   -3.8010 hc        1 MOL      0.059534
    146 H65         4.8160    0.9900   -2.9710 h1        1 MOL      0.020548
    147 H66         6.5030    1.0880   -3.5810 h1        1 MOL      0.020548
    148 N13         4.5940    1.6990    0.8510 n         1 MOL      0.061342
    149 C50         3.7750    1.6700    2.1020 c3        1 MOL     -0.005714
    150 C51         4.4630    0.9110    3.2750 c         1 MOL      0.313972
    151 O21         4.7300    1.4820    4.3550 o         1 MOL     -0.516529
    152 C52         2.4010    1.0640    1.7520 c3        1 MOL     -0.132996
    153 C53         1.6370    1.8600    0.6090 c3        1 MOL      0.083780
    154 C54         0.4210    1.2460    0.0760 c         1 MOL      0.611316
    155 O22        -0.4480    1.9840   -0.4760 o         1 MOL     -0.695293
    156 O23         0.1640    0.0320    0.1840 o         1 MOL     -0.695293
    157 H67         4.4590    0.9800    0.1410 hn        1 MOL      0.075645
    158 H68         3.6260    2.6730    2.4940 h1        1 MOL      0.085080
    159 H69         1.8360    1.2820    2.6600 hc        1 MOL      0.039807
    160 H70         2.5200   -0.0070    1.5590 hc        1 MOL      0.039807
    161 H71         2.3770    1.9290   -0.1940 hc        1 MOL      0.008351
    162 H72         1.4710    2.8660    0.9760 hc        1 MOL      0.008351
    163 N14         5.2010   -0.1010    2.8450 n         1 MOL      0.039426
    164 C55         6.2000   -0.9130    3.6350 c3        1 MOL     -0.246576
    165 H73         7.2040   -0.5290    3.4510 h1        1 MOL      0.094836
    166 H74         5.9720   -0.8380    4.6980 h1        1 MOL      0.094836
    167 H75         6.1480   -1.9560    3.3230 h1        1 MOL      0.094836
    168 H76         5.0370   -0.3890    1.8840 hn        1 MOL      0.037823
    169 Ca1        -1.9920   -0.2040   -1.1940 Ca        1 MOL      1.725142
@<TRIPOS>BOND
     1    1    2 1   
     2    1    4 1   
     3    1    5 1   
     4    1    6 1   
     5    2    3 2   
     6    2    7 1   
     7    7    8 1   
     8    7   15 1   
     9    8    9 1   
    10    8   11 1   
    11    8   16 1   
    12    9   10 2   
    13    9   19 1   
    14   11   12 1   
    15   11   17 1   
    16   11   18 1   
    17   12   13 1   
    18   12   14 1   
    19   19   20 1   
    20   19   24 1   
    21   20   21 1   
    22   20   23 1   
    23   20   25 1   
    24   21   22 2   
    25   21   29 1   
    26   23   26 1   
    27   23   27 1   
    28   23   28 1   
    29   29   30 1   
    30   29   37 1   
    31   30   31 1   
    32   30   33 1   
    33   30   38 1   
    34   31   32 2   
    35   31   41 1   
    36   33   34 1   
    37   33   39 1   
    38   33   40 1   
    39   34   35 1   
    40   34   36 1   
    41   41   42 1   
    42   41   45 1   
    43   42   43 1   
    44   42   46 1   
    45   42   47 1   
    46   43   44 2   
    47   43   48 1   
    48   48   49 1   
    49   48   56 1   
    50   49   50 1   
    51   49   52 1   
    52   49   57 1   
    53   50   51 2   
    54   50   62 1   
    55   52   53 1   
    56   52   58 1   
    57   52   59 1   
    58   53   54 1   
    59   53   55 2   
    60   54   60 1   
    61   54   61 1   
    62   62   63 1   
    63   62   66 1   
    64   63   64 1   
    65   63   67 1   
    66   63   68 1   
    67   64   65 2   
    68   64   69 1   
    69   69   70 1   
    70   69   76 1   
    71   70   71 1   
    72   70   73 1   
    73   70   77 1   
    74   71   72 2   
    75   71   83 1   
    76   73   74 1   
    77   73   75 1   
    78   73   78 1   
    79   74   80 1   
    80   74   81 1   
    81   74   82 1   
    82   75   79 1   
    83   83   84 1   
    84   83   91 1   
    85   84   85 1   
    86   84   87 1   
    87   84   92 1   
    88   85   86 2   
    89   85  102 1   
    90   87   88 1   
    91   87   89 1   
    92   87   93 1   
    93   88   90 1   
    94   88   94 1   
    95   88   95 1   
    96   89   96 1   
    97   89   97 1   
    98   89   98 1   
    99   90   99 1   
   100   90  100 1   
   101   90  101 1   
   102  102  103 1   
   103  102  110 1   
   104  103  104 1   
   105  103  106 1   
   106  103  111 1   
   107  104  105 2   
   108  104  114 1   
   109  106  107 1   
   110  106  112 1   
   111  106  113 1   
   112  107  108 1   
   113  107  109 1   
   114  114  115 1   
   115  114  125 1   
   116  115  116 1   
   117  115  118 1   
   118  115  126 1   
   119  116  117 2   
   120  116  134 1   
   121  118  119 1   
   122  118  127 1   
   123  118  128 1   
   124  119  120 ar  
   125  119  121 ar  
   126  120  122 ar  
   127  120  129 1   
   128  121  123 ar  
   129  121  130 1   
   130  122  124 ar  
   131  122  131 1   
   132  123  124 ar  
   133  123  132 1   
   134  124  133 1   
   135  134  135 1   
   136  134  140 1   
   137  135  136 1   
   138  135  138 1   
   139  135  141 1   
   140  136  137 2   
   141  136  148 1   
   142  138  139 1   
   143  138  142 1   
   144  138  143 1   
   145  139  140 1   
   146  139  144 1   
   147  139  145 1   
   148  140  146 1   
   149  140  147 1   
   150  148  149 1   
   151  148  157 1   
   152  149  150 1   
   153  149  152 1   
   154  149  158 1   
   155  150  151 2   
   156  150  163 1   
   157  152  153 1   
   158  152  159 1   
   159  152  160 1   
   160  153  154 1   
   161  153  161 1   
   162  153  162 1   
   163  154  155 1   
   164  154  156 1   
   165  163  164 1   
   166  163  168 1   
   167  164  165 1   
   168  164  166 1   
   169  164  167 1   
@<TRIPOS>SUBSTRUCTURE
     1 MOL         1 TEMP              0 ****  ****    0 ROOT
