@<TRIPOS>MOLECULE
MOL
  189   185     1     0     0
SMALL
resp


@<TRIPOS>ATOM
      1 C1          0.9730    3.2290   -5.3900 c3        1 MOL     -0.475546
      2 C2          1.0020    2.6070   -4.0330 c         1 MOL      0.901195
      3 O1          0.0080    2.5830   -3.3000 o         1 MOL     -0.653628
      4 H1         -0.0130    3.0890   -5.8330 hc        1 MOL      0.110707
      5 H2          1.1850    4.2950   -5.3070 hc        1 MOL      0.110707
      6 H3          1.7250    2.7570   -6.0230 hc        1 MOL      0.110707
      7 N1          2.1640    2.1340   -3.6220 n         1 MOL     -0.669009
      8 C3          2.5730    1.9220   -2.3080 c3        1 MOL      0.132256
      9 C4          2.9060    3.2930   -1.7410 c         1 MOL      0.359019
     10 O2          3.6680    4.0620   -2.2730 o         1 MOL     -0.546042
     11 C5          3.7990    0.9490   -2.3730 c3        1 MOL     -0.129594
     12 C6          4.3430    0.6510   -0.9900 c         1 MOL      0.832087
     13 O3          3.6670    0.8390    0.0580 o         1 MOL     -0.712579
     14 O4          5.4390    0.1200   -0.9700 o         1 MOL     -0.712579
     15 H4          2.8820    2.1030   -4.3260 hn        1 MOL      0.329403
     16 H5          1.7250    1.5190   -1.7560 h1        1 MOL      0.019930
     17 H6          4.5940    1.3910   -2.9690 hc        1 MOL      0.033009
     18 H7          3.4690    0.0120   -2.8220 hc        1 MOL      0.033009
     19 N2          2.2550    3.5720   -0.6170 n         1 MOL     -0.021867
     20 C7          2.2630    4.8660    0.0730 c3        1 MOL     -0.053037
     21 C8          3.1980    4.7690    1.2890 c         1 MOL      0.665958
     22 O5          3.6600    5.8240    1.7160 o         1 MOL     -0.620961
     23 C9          0.8000    5.2570    0.3860 c3        1 MOL     -0.113651
     24 C10        -0.2050    5.3590   -0.7820 c3        1 MOL      0.048370
     25 C11         0.3550    6.4040   -1.7410 c3        1 MOL     -0.070887
     26 C12        -0.6060    6.7060   -2.9190 c3        1 MOL      0.000824
     27 N3          0.0490    7.6260   -3.8510 n4        1 MOL     -0.282047
     28 H8          1.6020    2.9270   -0.2030 hn        1 MOL      0.201803
     29 H9          2.7090    5.5800   -0.6130 h1        1 MOL      0.008311
     30 H10         0.8240    6.1640    0.9810 hc        1 MOL      0.036252
     31 H11         0.4410    4.4640    1.0460 hc        1 MOL      0.036252
     32 H12        -1.1700    5.6870   -0.3860 hc        1 MOL      0.033230
     33 H13        -0.2870    4.4480   -1.3730 hc        1 MOL      0.033230
     34 H14         1.2680    5.9610   -2.1500 hc        1 MOL      0.047255
     35 H15         0.4170    7.3240   -1.1560 hc        1 MOL      0.047255
     36 H16        -1.4750    7.1750   -2.4610 hx        1 MOL      0.080310
     37 H17        -0.8310    5.7120   -3.3210 hx        1 MOL      0.080310
     38 H18         0.8810    7.2960   -4.3170 hn        1 MOL      0.305307
     39 H19        -0.6470    7.9740   -4.4950 hn        1 MOL      0.305307
     40 H20         0.2970    8.5030   -3.4020 hn        1 MOL      0.305307
     41 N4          3.6300    3.6220    1.7400 n         1 MOL     -0.345930
     42 C13         4.5470    3.4360    2.9150 c3        1 MOL      0.024845
     43 C14         5.7830    2.4940    2.7230 c         1 MOL      0.463458
     44 O6          6.4270    2.0170    3.6450 o         1 MOL     -0.491520
     45 C15         3.8450    3.0880    4.2640 c3        1 MOL     -0.246626
     46 C16         2.8560    1.9250    4.1700 c         1 MOL      0.807604
     47 O7          2.2810    1.5720    5.1910 o         1 MOL     -0.675100
     48 O8          2.6460    1.3390    3.0650 o         1 MOL     -0.675100
     49 H21         3.3970    2.7700    1.2350 hn        1 MOL      0.047361
     50 H22         5.0120    4.3870    3.1700 h1        1 MOL      0.090837
     51 H23         3.1920    3.9500    4.3890 hc        1 MOL      0.070311
     52 H24         4.5470    2.9140    5.0850 hc        1 MOL      0.070311
     53 N5          6.0650    2.0940    1.4860 n         1 MOL     -0.334363
     54 C17         7.3870    1.6420    1.0500 c3        1 MOL     -0.235292
     55 C18         7.6240    0.1120    1.2350 c         1 MOL      0.543624
     56 O9          8.7390   -0.3980    1.2560 o         1 MOL     -0.609024
     57 H25         5.4780    2.3450    0.6990 hn        1 MOL      0.265201
     58 H26         8.2430    2.1070    1.5330 h1        1 MOL      0.119948
     59 H27         7.3730    1.8060   -0.0310 h1        1 MOL      0.119948
     60 N6          6.5680   -0.6330    1.5470 n         1 MOL     -0.102192
     61 C19         6.7610   -2.0510    1.9580 c3        1 MOL     -0.130923
     62 C20         6.6870   -2.9980    0.7670 c         1 MOL      0.405323
     63 O10         6.7560   -4.2590    0.9130 o         1 MOL     -0.543234
     64 C21         5.6670   -2.4470    2.9390 c3        1 MOL     -0.215913
     65 C22         4.2720   -2.0220    2.6320 c         1 MOL      0.648378
     66 O11         3.4640   -1.6730    3.5450 o         1 MOL     -0.655639
     67 O12         3.9440   -2.0390    1.4520 o         1 MOL     -0.655639
     68 H28         5.6390   -0.2350    1.4490 hn        1 MOL      0.202001
     69 H29         7.7230   -2.1320    2.4700 h1        1 MOL      0.162363
     70 H30         5.9310   -1.9560    3.8830 hc        1 MOL      0.069065
     71 H31         5.7300   -3.5300    3.0570 hc        1 MOL      0.069065
     72 N7          6.4750   -2.5360   -0.4770 n         1 MOL     -0.154626
     73 C23         6.4620   -3.2700   -1.7410 c3        1 MOL     -0.281939
     74 C24         5.2260   -4.1210   -1.9300 c         1 MOL      0.562460
     75 O13         5.3590   -5.1210   -2.6490 o         1 MOL     -0.560287
     76 H32         6.2870   -1.5410   -0.5150 hn        1 MOL      0.199977
     77 H33         7.2620   -4.0090   -1.7030 h1        1 MOL      0.131781
     78 H34         6.6180   -2.6230   -2.6050 h1        1 MOL      0.131781
     79 N8          4.1000   -3.7070   -1.3030 n         1 MOL     -0.312597
     80 C25         2.7800   -4.3110   -1.3680 c3        1 MOL     -0.076243
     81 C26         1.6310   -3.3010   -1.3830 c         1 MOL      0.619106
     82 O14         1.8700   -2.1980   -0.8230 o         1 MOL     -0.660275
     83 C27         2.5790   -5.2850   -0.2420 c3        1 MOL      0.433956
     84 C28         3.3350   -6.6150   -0.2750 c3        1 MOL     -0.405325
     85 O15         2.6940   -4.6720    0.9840 oh        1 MOL     -0.615141
     86 H35         4.2630   -2.8980   -0.7190 hn        1 MOL      0.235986
     87 H36         2.7490   -4.8610   -2.3040 h1        1 MOL      0.042546
     88 H37         1.5500   -5.6270   -0.3280 h1        1 MOL     -0.011635
     89 H38         3.5530   -4.2200    0.9830 ho        1 MOL      0.423246
     90 H39         4.3560   -6.4410    0.0680 hc        1 MOL      0.103458
     91 H40         2.8520   -7.3610    0.3610 hc        1 MOL      0.103458
     92 H41         3.2900   -6.9870   -1.3030 hc        1 MOL      0.103458
     93 N9          0.5400   -3.7220   -1.9890 n         1 MOL     -0.530991
     94 C29        -0.6650   -2.8210   -2.1870 c3        1 MOL      0.098041
     95 C30        -1.8740   -3.3020   -1.3750 c         1 MOL      0.456771
     96 O16        -2.3900   -4.3680   -1.6280 o         1 MOL     -0.552542
     97 C31        -0.8790   -2.5740   -3.6950 c3        1 MOL      0.041518
     98 C32         0.3700   -1.7240   -4.1900 c3        1 MOL      0.040984
     99 C33        -2.2470   -1.9440   -3.9740 c3        1 MOL     -0.123709
    100 C34         0.0840   -1.2680   -5.6280 c3        1 MOL     -0.274260
    101 H42         0.4690   -4.6880   -2.2440 hn        1 MOL      0.298177
    102 H43        -0.3830   -1.8810   -1.7060 h1        1 MOL      0.049607
    103 H44        -0.8700   -3.5510   -4.1840 hc        1 MOL      0.028015
    104 H45         1.2250   -2.3990   -4.1790 hc        1 MOL      0.041791
    105 H46         0.5410   -0.8170   -3.6060 hc        1 MOL      0.041791
    106 H47        -3.0380   -2.3710   -3.3500 hc        1 MOL      0.030254
    107 H48        -2.1440   -0.9140   -3.6170 hc        1 MOL      0.030254
    108 H49        -2.6810   -2.1550   -4.9490 hc        1 MOL      0.030254
    109 H50        -0.6110   -0.4340   -5.6240 hc        1 MOL      0.059185
    110 H51         1.0650   -0.8660   -5.8980 hc        1 MOL      0.059185
    111 H52        -0.2370   -2.0560   -6.3070 hc        1 MOL      0.059185
    112 N10        -2.3620   -2.5170   -0.4350 n         1 MOL     -0.168113
    113 C35        -3.5540   -2.8110    0.3540 c3        1 MOL     -0.008999
    114 C36        -4.8590   -2.5100   -0.3590 c         1 MOL      0.340774
    115 O17        -4.8380   -1.9960   -1.4300 o         1 MOL     -0.313290
    116 C37        -3.5290   -2.1580    1.7470 c3        1 MOL      0.060989
    117 C38        -2.2530   -2.2050    2.5390 c3        1 MOL     -0.369129
    118 O18        -3.9370   -0.7810    1.7310 oh        1 MOL     -0.450961
    119 H53        -1.9340   -1.6390   -0.1620 hn        1 MOL      0.246152
    120 H54        -3.5790   -3.8830    0.5430 h1        1 MOL      0.085985
    121 H55        -4.2370   -2.6330    2.4110 h1        1 MOL      0.036073
    122 H56        -3.6240   -0.3320    2.5130 ho        1 MOL      0.374093
    123 H57        -2.4630   -2.0110    3.5910 hc        1 MOL      0.117821
    124 H58        -1.7610   -3.1790    2.4800 hc        1 MOL      0.117821
    125 H59        -1.5800   -1.4250    2.1770 hc        1 MOL      0.117821
    126 N11        -6.0070   -2.7170    0.2710 n         1 MOL     -0.267426
    127 C39        -7.3510   -2.3440   -0.3060 c3        1 MOL     -0.017871
    128 C40        -7.4240   -0.8210   -0.4400 c         1 MOL      0.264887
    129 O19        -7.8560   -0.1910   -1.4210 o         1 MOL     -0.468218
    130 C41        -8.5890   -2.7980    0.5090 c3        1 MOL      0.267220
    131 C42        -8.7460   -4.3310    0.6220 c3        1 MOL     -0.460571
    132 O20        -8.4420   -2.3590    1.8410 oh        1 MOL     -0.641738
    133 H60        -6.0120   -3.3090    1.0860 hn        1 MOL      0.237614
    134 H61        -7.5890   -2.7240   -1.3010 h1        1 MOL      0.104609
    135 H62        -9.5360   -2.4720    0.0650 h1        1 MOL      0.083065
    136 H63        -8.5860   -3.0610    2.4650 ho        1 MOL      0.402968
    137 H64        -7.8930   -4.8100    1.0960 hc        1 MOL      0.132553
    138 H65        -9.7000   -4.6550    1.0590 hc        1 MOL      0.132553
    139 H66        -8.7480   -4.7340   -0.3900 hc        1 MOL      0.132553
    140 N12        -7.0120   -0.1610    0.6640 n         1 MOL     -0.116483
    141 C43        -6.9340    1.2870    0.8350 c3        1 MOL     -0.014589
    142 C44        -5.8650    1.9150   -0.0850 c         1 MOL      0.500209
    143 O21        -5.9520    3.1190   -0.3770 o         1 MOL     -0.568586
    144 C45        -6.7990    1.5990    2.3280 c3        1 MOL     -0.125684
    145 C46        -8.1740    1.4820    3.0800 c3        1 MOL      0.026595
    146 C47        -7.9850    1.9080    4.6000 c3        1 MOL     -0.046306
    147 C48        -9.2840    1.9600    5.3810 c3        1 MOL     -0.053719
    148 N13        -9.7240    0.6330    5.7200 n4        1 MOL     -0.395477
    149 H67        -6.7480   -0.7780    1.4230 hn        1 MOL      0.176511
    150 H68        -7.8390    1.7830    0.4580 h1        1 MOL      0.086262
    151 H69        -6.4170    2.6180    2.4170 hc        1 MOL      0.054733
    152 H70        -6.0830    0.9390    2.8120 hc        1 MOL      0.054733
    153 H71        -8.6660    0.5050    3.1010 hc        1 MOL      0.018866
    154 H72        -8.9040    2.1730    2.6850 hc        1 MOL      0.018866
    155 H73        -7.6470    2.9380    4.6850 hc        1 MOL      0.048767
    156 H74        -7.3480    1.1750    5.0900 hc        1 MOL      0.048767
    157 H75       -10.0200    2.4970    4.7820 hx        1 MOL      0.121102
    158 H76        -9.0600    2.5650    6.2650 hx        1 MOL      0.121102
    159 H77       -10.3430    0.6690    6.5180 hn        1 MOL      0.304626
    160 H78       -10.2410    0.2270    4.9490 hn        1 MOL      0.304626
    161 H79        -8.9080    0.1150    5.9950 hn        1 MOL      0.304626
    162 N14        -4.8880    1.1660   -0.5780 n         1 MOL     -0.073464
    163 C49        -3.9950    1.6230   -1.6470 c3        1 MOL     -0.112398
    164 C50        -4.4910    1.2460   -3.0580 c         1 MOL      0.564012
    165 O22        -4.3290    2.0210   -3.9400 o         1 MOL     -0.562181
    166 C51        -2.6210    0.9660   -1.2430 c3        1 MOL      0.057699
    167 C52        -1.8280    1.7180   -0.1580 c3        1 MOL      0.077249
    168 C53        -0.5190    0.9900    0.1450 c         1 MOL      0.643800
    169 O23         0.4140    1.6620    0.6040 o         1 MOL     -0.679156
    170 O24        -0.3940   -0.2730    0.1250 o         1 MOL     -0.679156
    171 H80        -4.8540    0.2020   -0.2780 hn        1 MOL     -0.109253
    172 H81        -3.8100    2.6970   -1.5770 h1        1 MOL      0.082514
    173 H82        -2.0300    1.0060   -2.1540 hc        1 MOL      0.017304
    174 H83        -2.7830   -0.1040   -1.0810 hc        1 MOL      0.017304
    175 H84        -2.4160    1.8000    0.7550 hc        1 MOL     -0.043552
    176 H85        -1.5600    2.7240   -0.5110 hc        1 MOL     -0.043552
    177 N15        -5.0710    0.0270   -3.2620 n         1 MOL     -0.200280
    178 C54        -5.7830   -0.3290   -4.5000 c3        1 MOL     -0.277250
    179 H86        -6.6990   -0.8640   -4.2510 h1        1 MOL      0.105211
    180 H87        -6.0300    0.5780   -5.0510 h1        1 MOL      0.105211
    181 H88        -5.1460   -0.9660   -5.1150 h1        1 MOL      0.105211
    182 H89        -4.8720   -0.7580   -2.6540 hn        1 MOL      0.204630
    183 Ca1         1.8240   -0.4700    1.4460 Ca        1 MOL      1.704653
    184 O25         0.8060   -2.9660    1.8560 oh        1 MOL     -0.913506
    185 H90         0.2800   -3.3780    2.5420 ho        1 MOL      0.414498
    186 H91         1.4190   -3.6540    1.5770 ho        1 MOL      0.414498
    187 O26         0.4280   -0.3930    3.7290 oh        1 MOL     -0.913506
    188 H92        -0.3250   -0.7280    4.2230 ho        1 MOL      0.414498
    189 H93         1.0030   -0.0270    4.4010 ho        1 MOL      0.414498
@<TRIPOS>BOND
     1    1    2 1   
     2    1    4 1   
     3    1    5 1   
     4    1    6 1   
     5    2    3 2   
     6    2    7 1   
     7    7    8 1   
     8    7   15 1   
     9    8    9 1   
    10    8   11 1   
    11    8   16 1   
    12    9   10 2   
    13    9   19 1   
    14   11   12 1   
    15   11   17 1   
    16   11   18 1   
    17   12   13 1   
    18   12   14 1   
    19   19   20 1   
    20   19   28 1   
    21   20   21 1   
    22   20   23 1   
    23   20   29 1   
    24   21   22 2   
    25   21   41 1   
    26   23   24 1   
    27   23   30 1   
    28   23   31 1   
    29   24   25 1   
    30   24   32 1   
    31   24   33 1   
    32   25   26 1   
    33   25   34 1   
    34   25   35 1   
    35   26   27 1   
    36   26   36 1   
    37   26   37 1   
    38   27   38 1   
    39   27   39 1   
    40   27   40 1   
    41   41   42 1   
    42   41   49 1   
    43   42   43 1   
    44   42   45 1   
    45   42   50 1   
    46   43   44 2   
    47   43   53 1   
    48   45   46 1   
    49   45   51 1   
    50   45   52 1   
    51   46   47 1   
    52   46   48 1   
    53   53   54 1   
    54   53   57 1   
    55   54   55 1   
    56   54   58 1   
    57   54   59 1   
    58   55   56 2   
    59   55   60 1   
    60   60   61 1   
    61   60   68 1   
    62   61   62 1   
    63   61   64 1   
    64   61   69 1   
    65   62   63 2   
    66   62   72 1   
    67   64   65 1   
    68   64   70 1   
    69   64   71 1   
    70   65   66 1   
    71   65   67 1   
    72   72   73 1   
    73   72   76 1   
    74   73   74 1   
    75   73   77 1   
    76   73   78 1   
    77   74   75 2   
    78   74   79 1   
    79   79   80 1   
    80   79   86 1   
    81   80   81 1   
    82   80   83 1   
    83   80   87 1   
    84   81   82 2   
    85   81   93 1   
    86   83   84 1   
    87   83   85 1   
    88   83   88 1   
    89   84   90 1   
    90   84   91 1   
    91   84   92 1   
    92   85   89 1   
    93   93   94 1   
    94   93  101 1   
    95   94   95 1   
    96   94   97 1   
    97   94  102 1   
    98   95   96 2   
    99   95  112 1   
   100   97   98 1   
   101   97   99 1   
   102   97  103 1   
   103   98  100 1   
   104   98  104 1   
   105   98  105 1   
   106   99  106 1   
   107   99  107 1   
   108   99  108 1   
   109  100  109 1   
   110  100  110 1   
   111  100  111 1   
   112  112  113 1   
   113  112  119 1   
   114  113  114 1   
   115  113  116 1   
   116  113  120 1   
   117  114  115 2   
   118  114  126 1   
   119  116  117 1   
   120  116  118 1   
   121  116  121 1   
   122  117  123 1   
   123  117  124 1   
   124  117  125 1   
   125  118  122 1   
   126  126  127 1   
   127  126  133 1   
   128  127  128 1   
   129  127  130 1   
   130  127  134 1   
   131  128  129 2   
   132  128  140 1   
   133  130  131 1   
   134  130  132 1   
   135  130  135 1   
   136  131  137 1   
   137  131  138 1   
   138  131  139 1   
   139  132  136 1   
   140  140  141 1   
   141  140  149 1   
   142  141  142 1   
   143  141  144 1   
   144  141  150 1   
   145  142  143 2   
   146  142  162 1   
   147  144  145 1   
   148  144  151 1   
   149  144  152 1   
   150  145  146 1   
   151  145  153 1   
   152  145  154 1   
   153  146  147 1   
   154  146  155 1   
   155  146  156 1   
   156  147  148 1   
   157  147  157 1   
   158  147  158 1   
   159  148  159 1   
   160  148  160 1   
   161  148  161 1   
   162  162  163 1   
   163  162  171 1   
   164  163  164 1   
   165  163  166 1   
   166  163  172 1   
   167  164  165 2   
   168  164  177 1   
   169  166  167 1   
   170  166  173 1   
   171  166  174 1   
   172  167  168 1   
   173  167  175 1   
   174  167  176 1   
   175  168  169 1   
   176  168  170 1   
   177  177  178 1   
   178  177  182 1   
   179  178  179 1   
   180  178  180 1   
   181  178  181 1   
   182  184  185 1   
   183  184  186 1   
   184  187  188 1   
   185  187  189 1   
@<TRIPOS>SUBSTRUCTURE
     1 MOL         1 TEMP              0 ****  ****    0 ROOT
