@<TRIPOS>MOLECULE
MOL
  189   185     1     0     0
SMALL
resp


@<TRIPOS>ATOM
      1 C1         -1.0250    3.3470    4.7120 c3        1 MOL     -0.270556
      2 C2         -1.4190    2.7670    3.3750 c         1 MOL      0.654304
      3 O1         -1.0270    3.2410    2.3450 o         1 MOL     -0.562507
      4 H1         -0.0810    3.8810    4.6110 hc        1 MOL      0.068108
      5 H2         -1.7980    4.0380    5.0510 hc        1 MOL      0.068108
      6 H3         -0.9120    2.5430    5.4390 hc        1 MOL      0.068108
      7 N1         -2.3720    1.8590    3.3910 n         1 MOL     -0.487450
      8 C3         -3.0840    1.3390    2.2460 c3        1 MOL      0.097058
      9 C4         -4.1610    2.3480    1.7350 c         1 MOL      0.516833
     10 O2         -5.3970    2.0990    1.7000 o         1 MOL     -0.494557
     11 C5         -3.6060   -0.0600    2.5260 c3        1 MOL     -0.095379
     12 C6         -4.1720   -0.8410    1.3140 c         1 MOL      0.622940
     13 O3         -3.5680   -0.6370    0.2110 o         1 MOL     -0.630894
     14 O4         -5.0570   -1.7060    1.4680 o         1 MOL     -0.630894
     15 H4         -2.7780    1.6170    4.2890 hn        1 MOL      0.280628
     16 H5         -2.3410    1.2450    1.4610 h1        1 MOL      0.104243
     17 H6         -4.3580    0.0470    3.3040 hc        1 MOL      0.004706
     18 H7         -2.7190   -0.5940    2.8600 hc        1 MOL      0.004706
     19 N2         -3.6950    3.5470    1.3560 n         1 MOL     -0.564513
     20 C7         -4.4050    4.5590    0.5210 c3        1 MOL      0.199204
     21 C8         -4.9390    4.0010   -0.7800 c         1 MOL      0.430511
     22 O5         -6.0920    4.3840   -1.1600 o         1 MOL     -0.559033
     23 C9         -3.5480    5.8220    0.3410 c3        1 MOL     -0.085952
     24 C10        -4.3020    6.9900   -0.2850 c3        1 MOL     -0.059359
     25 C11        -5.5090    7.3780    0.5550 c3        1 MOL     -0.033583
     26 C12        -5.9890    8.7540    0.0700 c3        1 MOL      0.305681
     27 N3         -7.0950    9.2450    0.9060 n4        1 MOL     -0.501550
     28 H8         -2.6810    3.6300    1.3950 hn        1 MOL      0.323174
     29 H9         -5.2340    4.8610    1.1620 h1        1 MOL      0.038079
     30 H10        -2.6080    5.5890   -0.1610 hc        1 MOL      0.050289
     31 H11        -3.2010    6.1330    1.3160 hc        1 MOL      0.050289
     32 H12        -4.5890    6.8160   -1.3230 hc        1 MOL      0.035934
     33 H13        -3.6270    7.8410   -0.3430 hc        1 MOL      0.035934
     34 H14        -5.1070    7.5400    1.5550 hc        1 MOL      0.012982
     35 H15        -6.2980    6.6540    0.3740 hc        1 MOL      0.012982
     36 H16        -6.2280    8.8190   -0.9950 hx        1 MOL      0.008451
     37 H17        -5.1630    9.4590    0.1140 hx        1 MOL      0.008451
     38 H18        -7.1770   10.2420    0.8200 hn        1 MOL      0.353144
     39 H19        -7.9780    8.8200    0.6680 hn        1 MOL      0.353144
     40 H20        -6.7840    9.1420    1.8610 hn        1 MOL      0.353144
     41 N4         -4.2260    3.1230   -1.5190 n         1 MOL     -0.267135
     42 C13        -4.6790    2.5780   -2.7990 c3        1 MOL     -0.140730
     43 C14        -5.6560    1.3670   -2.6600 c         1 MOL      0.434303
     44 O6         -6.2050    0.8900   -3.6770 o         1 MOL     -0.534318
     45 C15        -3.4850    2.2620   -3.8070 c3        1 MOL     -0.059074
     46 C16        -2.3020    1.4920   -3.2810 c         1 MOL      0.759088
     47 O7         -2.1590    1.1720   -2.0750 o         1 MOL     -0.707650
     48 O8         -1.4610    1.2540   -4.1420 o         1 MOL     -0.707650
     49 H21        -3.2980    2.9070   -1.1750 hn        1 MOL      0.230594
     50 H22        -5.3120    3.3150   -3.2860 h1        1 MOL      0.113637
     51 H23        -3.0330    3.1580   -4.2420 hc        1 MOL      0.030783
     52 H24        -3.8870    1.7290   -4.6760 hc        1 MOL      0.030783
     53 N5         -5.8420    0.8880   -1.4390 n         1 MOL      0.019835
     54 C17        -7.0440    0.1140   -1.0510 c3        1 MOL     -0.285504
     55 C18        -6.9510   -1.3610   -1.4490 c         1 MOL      0.454043
     56 O9         -7.9800   -2.0530   -1.5790 o         1 MOL     -0.562836
     57 H25        -5.3380    1.2790   -0.6700 hn        1 MOL      0.044547
     58 H26        -7.8990    0.4810   -1.6100 h1        1 MOL      0.146729
     59 H27        -7.2840    0.2260    0.0040 h1        1 MOL      0.146729
     60 N6         -5.7750   -1.9390   -1.7950 n         1 MOL     -0.126001
     61 C19        -5.7000   -3.3750   -2.3070 c3        1 MOL     -0.000429
     62 C20        -5.8320   -4.3630   -1.1150 c         1 MOL      0.371910
     63 O10        -6.3120   -5.4480   -1.2610 o         1 MOL     -0.533849
     64 C21        -4.4230   -3.6560   -3.1220 c3        1 MOL     -0.260991
     65 C22        -3.2370   -2.9300   -2.6920 c         1 MOL      0.731710
     66 O11        -2.7260   -1.9480   -3.2620 o         1 MOL     -0.649869
     67 O12        -2.7160   -3.2470   -1.6090 o         1 MOL     -0.649869
     68 H28        -4.9280   -1.3800   -1.7680 hn        1 MOL      0.081401
     69 H29        -6.5220   -3.5070   -3.0090 h1        1 MOL      0.114725
     70 H30        -4.5100   -3.3310   -4.1580 hc        1 MOL      0.080473
     71 H31        -4.1980   -4.7150   -3.1170 hc        1 MOL      0.080473
     72 N7         -5.4440   -4.0060    0.1270 n         1 MOL     -0.036435
     73 C23        -5.4290   -4.9030    1.2710 c3        1 MOL     -0.091461
     74 C24        -4.0090   -5.2920    1.6770 c         1 MOL      0.552012
     75 O13        -3.7960   -6.0990    2.6440 o         1 MOL     -0.602676
     76 H32        -5.2120   -3.0270    0.2590 hn        1 MOL      0.147529
     77 H33        -5.9610   -5.8370    1.0760 h1        1 MOL      0.066272
     78 H34        -5.8340   -4.4130    2.1640 h1        1 MOL      0.066272
     79 N8         -2.9280   -4.7260    1.0140 n         1 MOL     -0.177575
     80 C25        -1.5460   -5.0330    1.3020 c3        1 MOL     -0.337317
     81 C26        -0.6740   -3.7600    1.4040 c         1 MOL      0.853105
     82 O14        -0.9800   -2.7050    0.8680 o         1 MOL     -0.615288
     83 C27        -0.9620   -5.9080    0.1550 c3        1 MOL      0.515089
     84 C28        -1.4090   -7.3870    0.3340 c3        1 MOL     -0.392251
     85 O15        -1.4260   -5.6240   -1.1100 oh        1 MOL     -0.678764
     86 H35        -3.1460   -4.0300    0.3120 hn        1 MOL      0.107008
     87 H36        -1.4510   -5.6900    2.1720 h1        1 MOL      0.141389
     88 H37         0.1260   -5.8690    0.1920 h1        1 MOL     -0.081357
     89 H38        -1.5480   -4.6910   -1.3130 ho        1 MOL      0.428902
     90 H39        -1.2010   -8.0870   -0.4680 hc        1 MOL      0.096952
     91 H40        -1.0290   -7.7360    1.2940 hc        1 MOL      0.096952
     92 H41        -2.5010   -7.4620    0.3340 hc        1 MOL      0.096952
     93 N9          0.3670   -3.7450    2.2070 n         1 MOL     -0.784371
     94 C29         1.3250   -2.5850    2.4210 c3        1 MOL      0.082271
     95 C30         2.6610   -3.0760    1.8630 c         1 MOL      0.608621
     96 O16         3.1220   -4.2100    2.0560 o         1 MOL     -0.563363
     97 C31         1.2670   -2.2090    3.8580 c3        1 MOL      0.129920
     98 C32        -0.0590   -1.4610    4.2210 c3        1 MOL     -0.014895
     99 C33         2.5350   -1.4400    4.2800 c3        1 MOL     -0.078686
    100 C34        -0.3030   -1.2730    5.7440 c3        1 MOL     -0.220576
    101 H42         0.5560   -4.6000    2.7180 hn        1 MOL      0.342885
    102 H43         1.0370   -1.7030    1.8460 h1        1 MOL     -0.040604
    103 H44         1.3360   -3.1210    4.4570 hc        1 MOL      0.022355
    104 H45        -0.8960   -2.0550    3.8470 hc        1 MOL      0.057981
    105 H46        -0.1260   -0.4450    3.8360 hc        1 MOL      0.057981
    106 H47         3.4470   -2.0140    4.1030 hc        1 MOL     -0.016375
    107 H48         2.5920   -0.5720    3.6200 hc        1 MOL     -0.016375
    108 H49         2.4430   -1.1080    5.3130 hc        1 MOL     -0.016375
    109 H50        -1.3010   -0.9090    5.9940 hc        1 MOL      0.053249
    110 H51        -0.2280   -2.2830    6.1510 hc        1 MOL      0.053249
    111 H52         0.4000   -0.5620    6.1810 hc        1 MOL      0.053249
    112 N10         3.3130   -2.0630    1.2750 n         1 MOL     -0.327708
    113 C35         4.5330   -2.1340    0.4870 c3        1 MOL     -0.304895
    114 C36         5.5820   -1.1540    1.0100 c         1 MOL      0.565262
    115 O17         5.1670   -0.1530    1.5770 o         1 MOL     -0.482238
    116 C37         4.2650   -1.9590   -0.9730 c3        1 MOL      0.488804
    117 C38         3.2960   -2.9810   -1.5640 c3        1 MOL     -0.677049
    118 O18         3.7140   -0.7210   -1.3590 oh        1 MOL     -0.692353
    119 H53         2.7700   -1.2170    1.1600 hn        1 MOL      0.525282
    120 H54         4.7970   -3.1990    0.5460 h1        1 MOL      0.102131
    121 H55         5.2060   -1.9890   -1.5120 h1        1 MOL     -0.009469
    122 H56         2.8380   -0.6260   -0.9580 ho        1 MOL      0.405075
    123 H57         2.3400   -3.1110   -1.0570 hc        1 MOL      0.174115
    124 H58         2.9300   -2.7330   -2.5620 hc        1 MOL      0.174115
    125 H59         3.9630   -3.8280   -1.6850 hc        1 MOL      0.174115
    126 N11         6.8690   -1.4080    0.7680 n         1 MOL     -0.380734
    127 C39         7.9350   -0.5150    1.0450 c3        1 MOL     -0.055729
    128 C40         7.7520    0.8800    0.4800 c         1 MOL      0.179114
    129 O19         8.2020    1.8800    1.0970 o         1 MOL     -0.490250
    130 C41         9.1690   -1.0210    0.4240 c3        1 MOL      0.087460
    131 C42         9.6950   -2.3030    1.0260 c3        1 MOL     -0.282531
    132 O20         9.0140   -1.2670   -1.0170 oh        1 MOL     -0.653805
    133 H60         7.1320   -2.2480    0.2790 hn        1 MOL      0.273687
    134 H61         8.0220   -0.5170    2.1310 h1        1 MOL      0.172575
    135 H62         9.9730   -0.2910    0.5630 h1        1 MOL      0.115362
    136 H63         9.6820   -1.9250   -1.2420 ho        1 MOL      0.430762
    137 H64        10.6960   -2.6230    0.7020 hc        1 MOL      0.092985
    138 H65         9.6770   -2.3300    2.1110 hc        1 MOL      0.092985
    139 H66         9.1050   -3.1290    0.6430 hc        1 MOL      0.092985
    140 N12         7.0980    1.0280   -0.6570 n         1 MOL      0.252367
    141 C43         6.7710    2.2690   -1.3380 c3        1 MOL     -0.065826
    142 C44         5.6070    3.0470   -0.6620 c         1 MOL      0.237822
    143 O21         5.9140    4.2870   -0.4260 o         1 MOL     -0.481207
    144 C45         6.2810    1.9190   -2.7770 c3        1 MOL     -0.156913
    145 C46         7.3290    1.1740   -3.6190 c3        1 MOL      0.204230
    146 C47         8.7450    1.7100   -3.7850 c3        1 MOL     -0.173322
    147 C48         9.3570    0.8850   -4.9190 c3        1 MOL      0.165700
    148 N13        10.6850    1.3410   -5.1810 n4        1 MOL     -0.447744
    149 H67         6.6680    0.1950   -1.0390 hn        1 MOL      0.102355
    150 H68         7.6980    2.8430   -1.3430 h1        1 MOL      0.073824
    151 H69         6.0830    2.8040   -3.3770 hc        1 MOL      0.058831
    152 H70         5.3400    1.3720   -2.7420 hc        1 MOL      0.058831
    153 H71         6.9020    0.9770   -4.6060 hc        1 MOL     -0.037072
    154 H72         7.6200    0.1670   -3.3300 hc        1 MOL     -0.037072
    155 H73         9.2800    1.6710   -2.8370 hc        1 MOL      0.056037
    156 H74         8.7540    2.7460   -4.1440 hc        1 MOL      0.056037
    157 H75         8.8090    0.8450   -5.8570 hx        1 MOL      0.055331
    158 H76         9.3350   -0.1560   -4.6120 hx        1 MOL      0.055331
    159 H77        11.2610    0.5900   -5.5280 hn        1 MOL      0.333078
    160 H78        10.5740    2.0710   -5.8710 hn        1 MOL      0.333078
    161 H79        11.1380    1.6820   -4.3540 hn        1 MOL      0.333078
    162 N14         4.5650    2.4390   -0.1140 n         1 MOL      0.000327
    163 C49         3.6220    3.1270    0.8290 c3        1 MOL     -0.320845
    164 C50         4.1290    3.4970    2.1810 c         1 MOL      0.521642
    165 O22         3.8750    4.5960    2.6570 o         1 MOL     -0.523439
    166 C51         2.4000    2.2340    1.1060 c3        1 MOL      0.517472
    167 C52         1.6870    1.9270   -0.1650 c3        1 MOL     -0.627487
    168 C53         0.7870    0.6960   -0.0220 c         1 MOL      0.814881
    169 O23        -0.4100    0.8210    0.2240 o         1 MOL     -0.744560
    170 O24         1.2500   -0.4100   -0.2780 o         1 MOL     -0.744560
    171 H80         4.4700    1.4640   -0.3580 hn        1 MOL      0.156480
    172 H81         3.3270    4.0660    0.3540 h1        1 MOL      0.141018
    173 H82         1.7130    2.6940    1.8090 hc        1 MOL     -0.109052
    174 H83         2.8640    1.3180    1.4720 hc        1 MOL     -0.109052
    175 H84         2.3240    1.6860   -1.0150 hc        1 MOL      0.149889
    176 H85         1.0900    2.8410   -0.2060 hc        1 MOL      0.149889
    177 N15         4.9890    2.5970    2.7920 n         1 MOL     -0.174053
    178 C54         5.7320    2.7900    4.0230 c3        1 MOL     -0.539575
    179 H86         6.5030    3.5440    3.8670 h1        1 MOL      0.179507
    180 H87         5.0540    3.1220    4.8100 h1        1 MOL      0.179507
    181 H88         6.1980    1.8490    4.3170 h1        1 MOL      0.179507
    182 H89         5.1830    1.7430    2.3000 hn        1 MOL      0.236719
    183 Ca1        -1.3990   -1.0860   -1.1140 Ca        1 MOL      1.647119
    184 O25         0.1090   -0.5150   -3.3280 oh        1 MOL     -0.802211
    185 H90         1.0350   -0.3120   -3.5080 ho        1 MOL      0.380011
    186 H91        -0.3810    0.1920   -3.7440 ho        1 MOL      0.380011
    187 O26         0.2000   -3.2310   -2.3090 oh        1 MOL     -0.802211
    188 H92         0.1490   -3.3760   -3.2520 ho        1 MOL      0.380011
    189 H93         1.0070   -3.6630   -2.0380 ho        1 MOL      0.380011
@<TRIPOS>BOND
     1    1    2 1   
     2    1    4 1   
     3    1    5 1   
     4    1    6 1   
     5    2    3 2   
     6    2    7 1   
     7    7    8 1   
     8    7   15 1   
     9    8    9 1   
    10    8   11 1   
    11    8   16 1   
    12    9   10 2   
    13    9   19 1   
    14   11   12 1   
    15   11   17 1   
    16   11   18 1   
    17   12   13 1   
    18   12   14 1   
    19   19   20 1   
    20   19   28 1   
    21   20   21 1   
    22   20   23 1   
    23   20   29 1   
    24   21   22 2   
    25   21   41 1   
    26   23   24 1   
    27   23   30 1   
    28   23   31 1   
    29   24   25 1   
    30   24   32 1   
    31   24   33 1   
    32   25   26 1   
    33   25   34 1   
    34   25   35 1   
    35   26   27 1   
    36   26   36 1   
    37   26   37 1   
    38   27   38 1   
    39   27   39 1   
    40   27   40 1   
    41   41   42 1   
    42   41   49 1   
    43   42   43 1   
    44   42   45 1   
    45   42   50 1   
    46   43   44 2   
    47   43   53 1   
    48   45   46 1   
    49   45   51 1   
    50   45   52 1   
    51   46   47 1   
    52   46   48 1   
    53   53   54 1   
    54   53   57 1   
    55   54   55 1   
    56   54   58 1   
    57   54   59 1   
    58   55   56 2   
    59   55   60 1   
    60   60   61 1   
    61   60   68 1   
    62   61   62 1   
    63   61   64 1   
    64   61   69 1   
    65   62   63 2   
    66   62   72 1   
    67   64   65 1   
    68   64   70 1   
    69   64   71 1   
    70   65   66 1   
    71   65   67 1   
    72   72   73 1   
    73   72   76 1   
    74   73   74 1   
    75   73   77 1   
    76   73   78 1   
    77   74   75 2   
    78   74   79 1   
    79   79   80 1   
    80   79   86 1   
    81   80   81 1   
    82   80   83 1   
    83   80   87 1   
    84   81   82 2   
    85   81   93 1   
    86   83   84 1   
    87   83   85 1   
    88   83   88 1   
    89   84   90 1   
    90   84   91 1   
    91   84   92 1   
    92   85   89 1   
    93   93   94 1   
    94   93  101 1   
    95   94   95 1   
    96   94   97 1   
    97   94  102 1   
    98   95   96 2   
    99   95  112 1   
   100   97   98 1   
   101   97   99 1   
   102   97  103 1   
   103   98  100 1   
   104   98  104 1   
   105   98  105 1   
   106   99  106 1   
   107   99  107 1   
   108   99  108 1   
   109  100  109 1   
   110  100  110 1   
   111  100  111 1   
   112  112  113 1   
   113  112  119 1   
   114  113  114 1   
   115  113  116 1   
   116  113  120 1   
   117  114  115 2   
   118  114  126 1   
   119  116  117 1   
   120  116  118 1   
   121  116  121 1   
   122  117  123 1   
   123  117  124 1   
   124  117  125 1   
   125  118  122 1   
   126  126  127 1   
   127  126  133 1   
   128  127  128 1   
   129  127  130 1   
   130  127  134 1   
   131  128  129 2   
   132  128  140 1   
   133  130  131 1   
   134  130  132 1   
   135  130  135 1   
   136  131  137 1   
   137  131  138 1   
   138  131  139 1   
   139  132  136 1   
   140  140  141 1   
   141  140  149 1   
   142  141  142 1   
   143  141  144 1   
   144  141  150 1   
   145  142  143 2   
   146  142  162 1   
   147  144  145 1   
   148  144  151 1   
   149  144  152 1   
   150  145  146 1   
   151  145  153 1   
   152  145  154 1   
   153  146  147 1   
   154  146  155 1   
   155  146  156 1   
   156  147  148 1   
   157  147  157 1   
   158  147  158 1   
   159  148  159 1   
   160  148  160 1   
   161  148  161 1   
   162  162  163 1   
   163  162  171 1   
   164  163  164 1   
   165  163  166 1   
   166  163  172 1   
   167  164  165 2   
   168  164  177 1   
   169  166  167 1   
   170  166  173 1   
   171  166  174 1   
   172  167  168 1   
   173  167  175 1   
   174  167  176 1   
   175  168  169 1   
   176  168  170 1   
   177  177  178 1   
   178  177  182 1   
   179  178  179 1   
   180  178  180 1   
   181  178  181 1   
   182  184  185 1   
   183  184  186 1   
   184  187  188 1   
   185  187  189 1   
@<TRIPOS>SUBSTRUCTURE
     1 MOL         1 TEMP              0 ****  ****    0 ROOT
