@<TRIPOS>MOLECULE
MOL
  179   176     1     0     0
SMALL
resp


@<TRIPOS>ATOM
      1 C1          0.1550    3.7270    6.6280 c3        1 MOL     -0.316020
      2 C2          0.0260    3.2450    5.1280 c         1 MOL      0.674163
      3 O1          1.0440    2.8500    4.4960 o         1 MOL     -0.576550
      4 H1          0.6360    4.7040    6.6550 hc        1 MOL      0.086812
      5 H2         -0.8370    3.7990    7.0740 hc        1 MOL      0.086812
      6 H3          0.7540    3.0120    7.1900 hc        1 MOL      0.086812
      7 N1         -1.1870    3.1720    4.5110 n         1 MOL     -0.535851
      8 C3         -1.3840    2.4820    3.2280 c3        1 MOL     -0.031205
      9 C4         -1.4110    3.5550    2.1670 c         1 MOL      0.537633
     10 O2         -2.1860    4.5050    2.3040 o         1 MOL     -0.554879
     11 C5         -2.6030    1.5790    3.3360 c3        1 MOL     -0.043143
     12 C6         -2.9860    0.9070    2.0610 c         1 MOL      0.645748
     13 O3         -2.6840    1.2600    0.9340 o         1 MOL     -0.722115
     14 O4         -3.7680   -0.0590    2.1310 o         1 MOL     -0.722115
     15 H4         -1.9970    3.3050    5.0960 hn        1 MOL      0.306899
     16 H5         -0.5510    1.8560    2.9030 h1        1 MOL      0.112233
     17 H6         -3.5200    2.0490    3.6730 hc        1 MOL      0.045416
     18 H7         -2.3430    0.8650    4.1180 hc        1 MOL      0.045416
     19 N2         -0.6850    3.5230    1.0230 n         1 MOL     -0.155493
     20 C7         -0.5620    4.5580   -0.0110 c3        1 MOL     -0.329722
     21 C8         -1.9020    4.7820   -0.7310 c         1 MOL      0.705228
     22 O5         -2.2020    5.9120   -1.0230 o         1 MOL     -0.584635
     23 C9          0.6910    4.2420   -0.8080 c3        1 MOL      0.272403
     24 C10         1.0970    5.4830   -1.6760 c3        1 MOL     -0.396624
     25 C11         1.8820    4.9820   -2.9470 c3        1 MOL      0.248849
     26 C12         2.4600    6.0360   -3.9400 c3        1 MOL     -0.019050
     27 N3          3.3420    5.3320   -4.8730 n4        1 MOL     -0.357423
     28 H8         -0.0170    2.7760    0.9090 hn        1 MOL      0.095542
     29 H9         -0.2860    5.4840    0.5040 h1        1 MOL      0.122648
     30 H10         0.4790    3.3910   -1.4640 hc        1 MOL      0.051982
     31 H11         1.4860    4.0560   -0.0910 hc        1 MOL      0.051982
     32 H12         1.7780    6.0900   -1.0790 hc        1 MOL      0.112508
     33 H13         0.2760    6.0300   -2.1300 hc        1 MOL      0.112508
     34 H14         1.2070    4.3960   -3.5700 hc        1 MOL     -0.066872
     35 H15         2.7130    4.3640   -2.6000 hc        1 MOL     -0.066872
     36 H16         3.0840    6.7340   -3.3730 hx        1 MOL      0.095497
     37 H17         1.5750    6.4890   -4.3860 hx        1 MOL      0.095497
     38 H18         4.1690    5.0410   -4.3710 hn        1 MOL      0.328672
     39 H19         2.9350    4.5690   -5.4000 hn        1 MOL      0.328672
     40 H20         3.6580    5.8900   -5.6530 hn        1 MOL      0.328672
     41 N4         -2.8400    3.8030   -0.8840 n         1 MOL     -0.435397
     42 C13        -4.1460    3.9570   -1.5550 c3        1 MOL      0.021858
     43 C14        -5.3350    3.4020   -0.7360 c         1 MOL      0.585977
     44 O6         -6.4090    3.7750   -1.1570 o         1 MOL     -0.554882
     45 C15        -4.1660    3.4440   -3.0240 c3        1 MOL     -0.367052
     46 C16        -3.9830    1.8850   -3.1080 c         1 MOL      0.781725
     47 O7         -3.9670    1.3920   -4.2370 o         1 MOL     -0.712095
     48 O8         -3.8120    1.1370   -2.0830 o         1 MOL     -0.712095
     49 H21        -2.6790    2.9130   -0.4180 hn        1 MOL      0.227073
     50 H22        -4.3950    5.0200   -1.5300 h1        1 MOL      0.104985
     51 H23        -3.4720    4.0140   -3.6450 hc        1 MOL      0.106202
     52 H24        -5.1670    3.6440   -3.3950 hc        1 MOL      0.106202
     53 N5         -5.2100    2.6410    0.3910 n         1 MOL     -0.382828
     54 C17        -6.4040    2.2290    1.2230 c3        1 MOL     -0.086662
     55 C18        -6.9990    0.8720    0.7270 c         1 MOL      0.468149
     56 O9         -8.0750    0.4310    1.2500 o         1 MOL     -0.560620
     57 H25        -4.3270    2.2340    0.6730 hn        1 MOL      0.246338
     58 H26        -7.1620    3.0160    1.2770 h1        1 MOL      0.106150
     59 H27        -6.1130    2.0120    2.2530 h1        1 MOL      0.106150
     60 N6         -6.2750    0.1430   -0.1800 n         1 MOL     -0.236520
     61 C19        -6.7700   -1.1480   -0.6260 c3        1 MOL      0.136236
     62 C20        -6.5740   -2.2580    0.4030 c         1 MOL      0.406361
     63 O10        -7.1160   -3.3620    0.1880 o         1 MOL     -0.572331
     64 C21        -6.1820   -1.3610   -2.0480 c3        1 MOL     -0.436170
     65 C22        -4.7140   -1.6860   -2.1540 c         1 MOL      1.048431
     66 N7         -4.1460   -1.9740   -3.2860 n         1 MOL     -0.946079
     67 O11        -4.0500   -1.7870   -1.1680 o         1 MOL     -0.810228
     68 H28        -5.4890    0.5610   -0.6540 hn        1 MOL      0.152347
     69 H29        -7.8500   -1.0280   -0.7330 h1        1 MOL      0.077633
     70 H30        -6.3760   -0.4780   -2.6590 hc        1 MOL      0.121211
     71 H31        -6.7220   -2.2150   -2.4550 hc        1 MOL      0.121211
     72 H32        -4.6330   -1.9430   -4.1730 hn        1 MOL      0.375921
     73 H33        -3.1520   -2.1470   -3.3570 hn        1 MOL      0.375921
     74 N8         -5.8120   -2.0390    1.4490 n         1 MOL     -0.126543
     75 C23        -5.6840   -3.0510    2.5150 c3        1 MOL     -0.246166
     76 C24        -4.3020   -3.8140    2.4050 c         1 MOL      0.512198
     77 O12        -3.9490   -4.6330    3.3130 o         1 MOL     -0.579553
     78 H34        -5.2840   -1.1790    1.4750 hn        1 MOL      0.212068
     79 H35        -6.5140   -3.7380    2.6460 h1        1 MOL      0.141739
     80 H36        -5.7110   -2.4690    3.4380 h1        1 MOL      0.141739
     81 N9         -3.4880   -3.6400    1.3720 n         1 MOL     -0.277146
     82 C25        -2.1140   -4.2240    1.3830 c3        1 MOL      0.105855
     83 C26        -1.0040   -3.1800    1.2060 c         1 MOL      0.376376
     84 O13        -1.2400   -2.1790    0.5490 o         1 MOL     -0.509846
     85 C27        -1.9480   -5.4220    0.4020 c3        1 MOL     -0.134482
     86 C28        -1.5330   -5.1190   -1.0080 ca        1 MOL      0.083292
     87 C29        -0.1810   -5.1260   -1.3860 ca        1 MOL     -0.156871
     88 C30        -2.5040   -4.7740   -1.9440 ca        1 MOL     -0.156871
     89 C31         0.2120   -4.9730   -2.7220 ca        1 MOL     -0.226238
     90 C32        -2.1280   -4.6430   -3.2900 ca        1 MOL     -0.226238
     91 C33        -0.7510   -4.8550   -3.7220 ca        1 MOL      0.289670
     92 O14        -0.3610   -4.7980   -5.0530 oh        1 MOL     -0.515512
     93 H37        -3.7000   -3.0870    0.5580 hn        1 MOL      0.238525
     94 H38        -1.9430   -4.5700    2.4040 h1        1 MOL      0.069326
     95 H39        -2.9470   -5.8670    0.3800 hc        1 MOL      0.060751
     96 H40        -1.2440   -6.1130    0.8580 hc        1 MOL      0.060751
     97 H41         0.5800   -5.4110   -0.6780 ha        1 MOL      0.151092
     98 H42        -3.5150   -4.4790   -1.6920 ha        1 MOL      0.151092
     99 H43         1.2620   -5.0270   -2.9390 ha        1 MOL      0.125431
    100 H44        -2.9320   -4.4560   -3.9850 ha        1 MOL      0.125431
    101 H45        -1.1380   -4.5650   -5.5830 ho        1 MOL      0.376239
    102 N10         0.1520   -3.3620    1.7730 n         1 MOL     -0.199747
    103 C34         1.3790   -2.5670    1.6650 c3        1 MOL     -0.272316
    104 C35         2.5590   -3.4100    1.0710 c         1 MOL      0.412476
    105 O15         2.5760   -4.6670    1.3130 o         1 MOL     -0.562392
    106 C36         1.6910   -1.7260    2.9050 c3        1 MOL      0.442620
    107 C37         2.2970   -2.6180    4.0430 c3        1 MOL     -0.197071
    108 C38         0.4370   -1.0550    3.3780 c3        1 MOL     -0.221803
    109 C39         3.0360   -1.7020    5.0540 c3        1 MOL     -0.107729
    110 H46         0.1830   -4.1210    2.4300 hn        1 MOL      0.236067
    111 H47         1.1990   -1.7820    0.9280 h1        1 MOL      0.185285
    112 H48         2.4740   -1.0310    2.6180 hc        1 MOL     -0.180316
    113 H49         3.0680   -3.2480    3.6060 hc        1 MOL      0.059518
    114 H50         1.4950   -3.2400    4.4590 hc        1 MOL      0.059518
    115 H51         0.7320   -0.1700    3.9350 hc        1 MOL      0.057240
    116 H52        -0.0890   -0.6330    2.5150 hc        1 MOL      0.057240
    117 H53        -0.1530   -1.7610    3.9680 hc        1 MOL      0.057240
    118 H54         3.7830   -1.0630    4.5720 hc        1 MOL      0.034348
    119 H55         2.3010   -1.0880    5.5650 hc        1 MOL      0.034348
    120 H56         3.5970   -2.3500    5.7210 hc        1 MOL      0.034348
    121 N11         3.4510   -2.7600    0.4020 n         1 MOL     -0.109675
    122 C40         4.7620   -3.3500   -0.0960 c3        1 MOL     -0.071245
    123 C41         5.8780   -2.3330    0.1330 c         1 MOL      0.469746
    124 O16         5.6250   -1.2310    0.6620 o         1 MOL     -0.467637
    125 C42         4.5790   -3.6500   -1.6390 c3        1 MOL     -0.164742
    126 O17         4.3870   -2.4590   -2.4080 oh        1 MOL     -0.546544
    127 H57         3.3350   -1.7580    0.4070 hn        1 MOL      0.237063
    128 H58         5.0480   -4.2480    0.4480 h1        1 MOL      0.121651
    129 H59         3.8040   -4.3590   -1.9100 h1        1 MOL      0.118914
    130 H60         5.4940   -4.0120   -2.1210 h1        1 MOL      0.118914
    131 H61         4.5950   -2.6850   -3.3120 ho        1 MOL      0.416141
    132 N12         7.0770   -2.6780   -0.2270 n         1 MOL     -0.333555
    133 C43         8.3170   -2.0010    0.0970 c3        1 MOL      0.087740
    134 C44         8.2290   -0.4850   -0.3370 c         1 MOL      0.514832
    135 O18         8.6480    0.3730    0.4660 o         1 MOL     -0.510261
    136 C45         9.3960   -2.8570   -0.5590 c3        1 MOL     -0.362646
    137 H62         7.1780   -3.6370   -0.5400 hn        1 MOL      0.273141
    138 H63         8.5920   -2.0660    1.1560 h1        1 MOL      0.099591
    139 H64         9.4160   -3.7990   -0.0210 hc        1 MOL      0.108779
    140 H65         9.0560   -3.1050   -1.5710 hc        1 MOL      0.108779
    141 H66        10.3570   -2.3610   -0.4530 hc        1 MOL      0.108779
    142 N13         7.6070   -0.1950   -1.5070 n         1 MOL     -0.463414
    143 C46         7.3170    1.1830   -2.0480 c3        1 MOL      0.108966
    144 C47         6.2860    1.9130   -1.1950 c         1 MOL      0.344602
    145 O19         6.3390    3.1170   -1.1050 o         1 MOL     -0.504113
    146 C48         6.6970    0.9610   -3.4780 c3        1 MOL     -0.253716
    147 H67         7.2460   -0.9900   -2.0210 hn        1 MOL      0.258713
    148 H68         8.2240    1.7860   -2.0920 h1        1 MOL      0.104563
    149 H69         7.3570    0.5580   -4.2340 hc        1 MOL      0.066512
    150 H70         5.8280    0.3380   -3.2600 hc        1 MOL      0.066512
    151 H71         6.3800    1.9420   -3.8390 hc        1 MOL      0.066512
    152 N14         5.3630    1.2100   -0.5060 n         1 MOL     -0.036172
    153 C49         4.3880    1.8600    0.3940 c3        1 MOL     -0.304359
    154 C50         4.9560    2.0900    1.8140 c         1 MOL      0.457456
    155 O20         4.6880    3.0750    2.5170 o         1 MOL     -0.508617
    156 C51         3.1380    0.9560    0.4390 c3        1 MOL      0.100573
    157 C52         2.4500    1.0100   -0.9290 c3        1 MOL      0.012785
    158 C53         1.0790    0.4160   -0.7040 c         1 MOL      0.518650
    159 O21         0.7470   -0.5660   -1.3910 o         1 MOL     -0.714241
    160 O22         0.2370    0.8270    0.1510 o         1 MOL     -0.714241
    161 H72         5.3120    0.2200   -0.6430 hn        1 MOL      0.260319
    162 H73         4.0660    2.8110   -0.0090 h1        1 MOL      0.147733
    163 H74         2.4190    1.3410    1.1660 hc        1 MOL      0.076472
    164 H75         3.3300   -0.0920    0.6660 hc        1 MOL      0.076472
    165 H76         3.0810    0.4420   -1.6120 hc        1 MOL     -0.092586
    166 H77         2.3770    2.0750   -1.1670 hc        1 MOL     -0.092586
    167 N15         5.7530    1.1080    2.3040 n         1 MOL     -0.062801
    168 C54         6.4930    1.2570    3.5410 c3        1 MOL     -0.426316
    169 H78         7.2800    1.9990    3.4060 h1        1 MOL      0.148207
    170 H79         5.8170    1.5840    4.3310 h1        1 MOL      0.148207
    171 H80         6.9380    0.3010    3.8150 h1        1 MOL      0.148207
    172 H81         5.9590    0.3150    1.7200 hn        1 MOL      0.120140
    173 Ca1        -1.8950   -0.2250   -1.0170 Ca        1 MOL      1.765936
    174 O23        -1.4570   -1.5900   -3.1400 oh        1 MOL     -0.778551
    175 H82        -0.6820   -2.1380   -3.2450 ho        1 MOL      0.389206
    176 H83        -1.5000   -1.0740   -3.9500 ho        1 MOL      0.389206
    177 O24        -0.9470    1.7140   -2.8120 oh        1 MOL     -0.778551
    178 H84        -0.1040    1.6470   -3.2570 ho        1 MOL      0.389206
    179 H85        -1.4410    2.3520   -3.3340 ho        1 MOL      0.389206
@<TRIPOS>BOND
     1    1    2 1   
     2    1    4 1   
     3    1    5 1   
     4    1    6 1   
     5    2    3 2   
     6    2    7 1   
     7    7    8 1   
     8    7   15 1   
     9    8    9 1   
    10    8   11 1   
    11    8   16 1   
    12    9   10 2   
    13    9   19 1   
    14   11   12 1   
    15   11   17 1   
    16   11   18 1   
    17   12   13 1   
    18   12   14 1   
    19   19   20 1   
    20   19   28 1   
    21   20   21 1   
    22   20   23 1   
    23   20   29 1   
    24   21   22 2   
    25   21   41 1   
    26   23   24 1   
    27   23   30 1   
    28   23   31 1   
    29   24   25 1   
    30   24   32 1   
    31   24   33 1   
    32   25   26 1   
    33   25   34 1   
    34   25   35 1   
    35   26   27 1   
    36   26   36 1   
    37   26   37 1   
    38   27   38 1   
    39   27   39 1   
    40   27   40 1   
    41   41   42 1   
    42   41   49 1   
    43   42   43 1   
    44   42   45 1   
    45   42   50 1   
    46   43   44 2   
    47   43   53 1   
    48   45   46 1   
    49   45   51 1   
    50   45   52 1   
    51   46   47 1   
    52   46   48 1   
    53   53   54 1   
    54   53   57 1   
    55   54   55 1   
    56   54   58 1   
    57   54   59 1   
    58   55   56 2   
    59   55   60 1   
    60   60   61 1   
    61   60   68 1   
    62   61   62 1   
    63   61   64 1   
    64   61   69 1   
    65   62   63 2   
    66   62   74 1   
    67   64   65 1   
    68   64   70 1   
    69   64   71 1   
    70   65   66 1   
    71   65   67 2   
    72   66   72 1   
    73   66   73 1   
    74   74   75 1   
    75   74   78 1   
    76   75   76 1   
    77   75   79 1   
    78   75   80 1   
    79   76   77 2   
    80   76   81 1   
    81   81   82 1   
    82   81   93 1   
    83   82   83 1   
    84   82   85 1   
    85   82   94 1   
    86   83   84 2   
    87   83  102 1   
    88   85   86 1   
    89   85   95 1   
    90   85   96 1   
    91   86   87 ar  
    92   86   88 ar  
    93   87   89 ar  
    94   87   97 1   
    95   88   90 ar  
    96   88   98 1   
    97   89   91 ar  
    98   89   99 1   
    99   90   91 ar  
   100   90  100 1   
   101   91   92 1   
   102   92  101 1   
   103  102  103 1   
   104  102  110 1   
   105  103  104 1   
   106  103  106 1   
   107  103  111 1   
   108  104  105 2   
   109  104  121 1   
   110  106  107 1   
   111  106  108 1   
   112  106  112 1   
   113  107  109 1   
   114  107  113 1   
   115  107  114 1   
   116  108  115 1   
   117  108  116 1   
   118  108  117 1   
   119  109  118 1   
   120  109  119 1   
   121  109  120 1   
   122  121  122 1   
   123  121  127 1   
   124  122  123 1   
   125  122  125 1   
   126  122  128 1   
   127  123  124 2   
   128  123  132 1   
   129  125  126 1   
   130  125  129 1   
   131  125  130 1   
   132  126  131 1   
   133  132  133 1   
   134  132  137 1   
   135  133  134 1   
   136  133  136 1   
   137  133  138 1   
   138  134  135 2   
   139  134  142 1   
   140  136  139 1   
   141  136  140 1   
   142  136  141 1   
   143  142  143 1   
   144  142  147 1   
   145  143  144 1   
   146  143  146 1   
   147  143  148 1   
   148  144  145 2   
   149  144  152 1   
   150  146  149 1   
   151  146  150 1   
   152  146  151 1   
   153  152  153 1   
   154  152  161 1   
   155  153  154 1   
   156  153  156 1   
   157  153  162 1   
   158  154  155 2   
   159  154  167 1   
   160  156  157 1   
   161  156  163 1   
   162  156  164 1   
   163  157  158 1   
   164  157  165 1   
   165  157  166 1   
   166  158  159 1   
   167  158  160 1   
   168  167  168 1   
   169  167  172 1   
   170  168  169 1   
   171  168  170 1   
   172  168  171 1   
   173  174  175 1   
   174  174  176 1   
   175  177  178 1   
   176  177  179 1   
@<TRIPOS>SUBSTRUCTURE
     1 MOL         1 TEMP              0 ****  ****    0 ROOT
