@<TRIPOS>MOLECULE
MOL
  186   183     1     0     0
SMALL
resp


@<TRIPOS>ATOM
      1 C1          0.7680   -2.2360    6.5160 c3        1 MOL     -0.295270
      2 C2          1.0670   -2.1800    5.0130 c         1 MOL      0.753456
      3 O1          0.2760   -2.7420    4.2290 o         1 MOL     -0.583517
      4 H1          1.6910   -2.0830    7.0760 hc        1 MOL      0.068149
      5 H2          0.0530   -1.4550    6.7740 hc        1 MOL      0.068149
      6 H3          0.3490   -3.2100    6.7670 hc        1 MOL      0.068149
      7 N1          2.1120   -1.5120    4.4900 n         1 MOL     -0.701412
      8 C3          2.6160   -1.5900    3.0800 c3        1 MOL      0.324469
      9 C4          3.0260   -2.9910    2.6000 c         1 MOL      0.605282
     10 O2          3.7090   -3.7370    3.3010 o         1 MOL     -0.599091
     11 C5          3.7660   -0.6220    2.9550 c3        1 MOL     -0.380596
     12 C6          4.4970   -0.5560    1.5590 c         1 MOL      0.876091
     13 O3          5.7250   -0.1930    1.4670 o         1 MOL     -0.702104
     14 O4          3.7090   -0.8020    0.6200 o         1 MOL     -0.702104
     15 H4          2.6570   -0.9790    5.1470 hn        1 MOL      0.324371
     16 H5          1.7680   -1.2640    2.4870 h1        1 MOL      0.009208
     17 H6          4.4760   -1.0130    3.6860 hc        1 MOL      0.054875
     18 H7          3.2610    0.3260    3.1330 hc        1 MOL      0.054875
     19 N2          2.6000   -3.4300    1.3780 n         1 MOL     -0.166791
     20 C7          2.5380   -4.9030    1.0610 c3        1 MOL     -0.074061
     21 C8          3.3890   -5.1760   -0.1720 c         1 MOL      0.533394
     22 O5          4.1920   -6.1460   -0.1620 o         1 MOL     -0.581247
     23 C9          1.0480   -5.3220    0.8390 c3        1 MOL      0.011286
     24 C10         0.4580   -5.5920    2.3260 c3        1 MOL      0.014273
     25 C11         0.8730   -6.5740    0.0180 c3        1 MOL     -0.258195
     26 C12        -1.1390   -5.6490    2.3410 c3        1 MOL     -0.106686
     27 H8          2.1070   -2.8280    0.7390 hn        1 MOL      0.001614
     28 H9          3.0130   -5.4550    1.8780 h1        1 MOL      0.084848
     29 H10         0.4940   -4.5520    0.3080 hc        1 MOL      0.132618
     30 H11         0.8200   -4.7950    2.9770 hc        1 MOL     -0.007906
     31 H12         0.7520   -6.5450    2.7660 hc        1 MOL     -0.007906
     32 H13         1.3270   -6.5890   -0.9740 hc        1 MOL      0.062316
     33 H14         1.3690   -7.3330    0.6190 hc        1 MOL      0.062316
     34 H15        -0.1420   -6.9640    0.0060 hc        1 MOL      0.062316
     35 H16        -1.6190   -5.7190    3.3250 hc        1 MOL      0.026982
     36 H17        -1.5230   -4.7210    1.9170 hc        1 MOL      0.026982
     37 H18        -1.5550   -6.4350    1.7050 hc        1 MOL      0.026982
     38 N3          3.3070   -4.3450   -1.2350 n         1 MOL     -0.474407
     39 C13         4.1510   -4.4320   -2.4810 c3        1 MOL      0.097500
     40 C14         5.5650   -3.7880   -2.2490 c         1 MOL      0.449002
     41 O6          6.4540   -4.0090   -3.0410 o         1 MOL     -0.544623
     42 C15         3.3960   -3.9060   -3.7270 c3        1 MOL     -0.226677
     43 C16         2.7910   -2.5030   -3.7010 c         1 MOL      0.774474
     44 O7          1.7470   -2.2890   -4.3580 o         1 MOL     -0.718787
     45 O8          3.1090   -1.6550   -2.8530 o         1 MOL     -0.718787
     46 H19         2.6300   -3.5980   -1.2510 hn        1 MOL      0.378108
     47 H20         4.4130   -5.4730   -2.6720 h1        1 MOL      0.065158
     48 H21         2.6310   -4.5860   -4.1020 hc        1 MOL      0.054333
     49 H22         4.1620   -3.9970   -4.4950 hc        1 MOL      0.054333
     50 N4          5.7090   -3.0860   -1.1400 n         1 MOL     -0.013424
     51 C17         6.8890   -2.5250   -0.5730 c3        1 MOL     -0.191046
     52 C18         7.3730   -1.3280   -1.3590 c         1 MOL      0.644608
     53 O9          8.0810   -1.4990   -2.4130 o         1 MOL     -0.552503
     54 H23         4.8690   -2.8070   -0.6630 hn        1 MOL      0.041257
     55 H24         7.7850   -3.1380   -0.6030 h1        1 MOL      0.060480
     56 H25         6.6840   -2.2580    0.4650 h1        1 MOL      0.060480
     57 N5          7.0550   -0.0730   -0.9250 n         1 MOL     -0.481677
     58 C19         7.5210    1.1240   -1.5990 c3        1 MOL     -0.067830
     59 C20         7.5150    2.4080   -0.6810 c         1 MOL      0.497751
     60 O10         7.8900    3.4520   -1.1400 o         1 MOL     -0.530568
     61 C21         6.5690    1.4230   -2.8310 c3        1 MOL     -0.141889
     62 C22         5.1100    1.3910   -2.3640 c         1 MOL      0.824948
     63 O11         4.3510    0.9930   -3.2320 o         1 MOL     -0.761089
     64 O12         4.5910    1.5910   -1.2820 o         1 MOL     -0.761089
     65 H26         6.4010    0.1550   -0.1790 hn        1 MOL      0.218758
     66 H27         8.5290    0.9220   -1.9540 h1        1 MOL      0.081711
     67 H28         6.7160    0.8070   -3.7250 hc        1 MOL      0.047007
     68 H29         6.6260    2.4630   -3.1590 hc        1 MOL      0.047007
     69 N6          7.1260    2.2950    0.6410 n         1 MOL     -0.321285
     70 C23         6.9150    3.3360    1.6120 c3        1 MOL     -0.344142
     71 C24         5.5820    4.0270    1.6150 c         1 MOL      0.644293
     72 O13         5.4060    4.9490    2.3990 o         1 MOL     -0.641696
     73 H30         6.8810    1.3590    0.9310 hn        1 MOL      0.283486
     74 H31         7.6640    4.1120    1.5010 h1        1 MOL      0.152689
     75 H32         7.0340    2.7670    2.5300 h1        1 MOL      0.152689
     76 N7          4.5280    3.5960    0.9020 n         1 MOL     -0.266550
     77 C25         3.1800    4.1960    0.9130 c3        1 MOL      0.018984
     78 C26         2.0660    3.1500    1.1400 c         1 MOL      0.479652
     79 O14         2.2540    1.9670    0.7670 o         1 MOL     -0.530835
     80 C27         2.9680    5.1500   -0.2230 c3        1 MOL      0.209265
     81 C28         3.5220    6.5300    0.0650 c3        1 MOL     -0.235030
     82 C29         3.2700    7.4830   -1.0810 c         1 MOL      0.642245
     83 N8          4.0820    7.3240   -2.1140 n         1 MOL     -0.840177
     84 O15         2.5320    8.4100   -0.9610 o         1 MOL     -0.567903
     85 H33         4.6310    2.7540    0.3440 hn        1 MOL      0.175174
     86 H34         3.1730    4.9320    1.7230 h1        1 MOL      0.039357
     87 H35         1.8910    5.2920   -0.2400 hc        1 MOL     -0.041638
     88 H36         3.3800    4.7510   -1.1440 hc        1 MOL     -0.041638
     89 H37         4.5980    6.3910    0.1840 hc        1 MOL      0.070921
     90 H38         2.9990    6.9500    0.9310 hc        1 MOL      0.070921
     91 H39         4.7570    6.5750   -2.1220 hn        1 MOL      0.377794
     92 H40         4.1230    8.1030   -2.7510 hn        1 MOL      0.377794
     93 N9          0.9220    3.6030    1.7660 n         1 MOL     -0.456125
     94 C30        -0.1780    2.7570    2.1210 c3        1 MOL      0.006547
     95 C31        -1.3040    3.2630    1.2350 c         1 MOL      0.329791
     96 O16        -1.7310    4.3890    1.4160 o         1 MOL     -0.538604
     97 C32        -0.3870    2.7870    3.7010 c3        1 MOL      0.273933
     98 C33        -1.6980    2.1130    4.1170 c3        1 MOL     -0.474077
     99 C34         0.6810    1.9560    4.4380 c3        1 MOL     -0.474077
    100 H41         0.9100    4.5560    2.1090 hn        1 MOL      0.311690
    101 H42        -0.0120    1.7460    1.7420 h1        1 MOL      0.131675
    102 H43        -0.4660    3.8460    3.9470 hc        1 MOL     -0.005576
    103 H44        -1.7130    1.0470    3.8700 hc        1 MOL      0.118553
    104 H45        -1.7000    2.3000    5.1910 hc        1 MOL      0.118553
    105 H46        -2.5330    2.7000    3.7460 hc        1 MOL      0.118553
    106 H47         0.3590    0.9250    4.3620 hc        1 MOL      0.118553
    107 H48         1.6640    2.1100    3.9850 hc        1 MOL      0.118553
    108 H49         0.6430    2.1630    5.5050 hc        1 MOL      0.118553
    109 N10        -1.6620    2.5240    0.1740 n         1 MOL     -0.041729
    110 C35        -2.7850    2.7620   -0.7090 c3        1 MOL      0.029616
    111 C36        -4.1050    2.2710   -0.0680 c         1 MOL      0.464297
    112 O17        -4.1100    1.5030    0.8610 o         1 MOL     -0.350026
    113 C37        -2.4690    1.8640   -1.8950 c3        1 MOL     -0.634300
    114 C38        -3.4410    1.9110   -3.0290 c         1 MOL      0.811615
    115 N11        -3.8440    3.0410   -3.5400 n         1 MOL     -0.839408
    116 O18        -3.9640    0.9000   -3.4360 o         1 MOL     -0.550430
    117 H50        -0.9900    1.8110   -0.0460 hn        1 MOL      0.152052
    118 H51        -2.9130    3.8190   -0.9560 h1        1 MOL      0.036763
    119 H52        -2.3180    0.8140   -1.6870 hc        1 MOL      0.216087
    120 H53        -1.4670    2.1400   -2.2100 hc        1 MOL      0.216087
    121 H54        -3.4630    3.9020   -3.1700 hn        1 MOL      0.365107
    122 H55        -4.3440    3.0990   -4.4190 hn        1 MOL      0.365107
    123 N12        -5.2370    2.6280   -0.7570 n         1 MOL     -0.512492
    124 C39        -6.5880    2.2280   -0.3670 c3        1 MOL      0.290511
    125 C40        -6.7110    0.7120   -0.0160 c         1 MOL      0.753996
    126 O19        -7.0960    0.3840    1.1360 o         1 MOL     -0.586686
    127 C41        -7.6080    2.4980   -1.4230 c3        1 MOL     -0.039527
    128 C42        -9.0140    2.0310   -1.2420 ca        1 MOL     -0.090561
    129 C43        -9.7010    2.1850   -0.0200 ca        1 MOL     -0.083459
    130 C44        -9.8030    1.5840   -2.3300 ca        1 MOL     -0.083459
    131 C45       -10.9950    1.8090    0.1750 ca        1 MOL     -0.325889
    132 C46       -11.2100    1.2480   -2.1820 ca        1 MOL     -0.325889
    133 C47       -11.7780    1.3170   -0.9060 ca        1 MOL      0.454303
    134 O20       -13.1350    1.2800   -0.7990 oh        1 MOL     -0.562226
    135 H56        -4.9930    3.2780   -1.4870 hn        1 MOL      0.230261
    136 H57        -6.7950    2.8140    0.5340 h1        1 MOL     -0.014215
    137 H58        -7.2480    2.2160   -2.4110 hc        1 MOL      0.025331
    138 H59        -7.6500    3.5790   -1.5720 hc        1 MOL      0.025331
    139 H60        -9.2040    2.5800    0.8510 ha        1 MOL      0.108159
    140 H61        -9.3590    1.6430   -3.3190 ha        1 MOL      0.108159
    141 H62       -11.4320    1.7960    1.1600 ha        1 MOL      0.153800
    142 H63       -11.8410    1.1960   -3.0550 ha        1 MOL      0.153800
    143 H64       -13.7020    1.4970   -1.5450 ho        1 MOL      0.370247
    144 N13        -6.3900   -0.1900   -0.9310 n         1 MOL     -0.547465
    145 C48        -6.3710   -1.6990   -0.7630 c3        1 MOL     -0.108213
    146 C49        -5.5220   -2.1620    0.4510 c         1 MOL      0.454997
    147 O21        -5.9570   -3.0250    1.1320 o         1 MOL     -0.484630
    148 C50        -5.7360   -2.3980   -2.0560 c3        1 MOL      0.045842
    149 C51        -5.6250   -3.9660   -1.9070 c3        1 MOL     -0.319459
    150 C52        -5.3780   -4.5750   -3.2810 c         1 MOL      0.741663
    151 O22        -4.1950   -4.7400   -3.6070 o         1 MOL     -0.747504
    152 O23        -6.3140   -4.8110   -4.1390 o         1 MOL     -0.747504
    153 H65        -6.0600    0.1170   -1.8390 hn        1 MOL      0.264909
    154 H66        -7.3850   -2.0790   -0.6860 h1        1 MOL      0.134177
    155 H67        -4.7420   -2.0220   -2.2710 hc        1 MOL      0.041130
    156 H68        -6.3140   -2.1500   -2.9470 hc        1 MOL      0.041130
    157 H69        -6.5990   -4.2960   -1.5540 hc        1 MOL      0.057780
    158 H70        -4.8140   -4.2060   -1.2110 hc        1 MOL      0.057780
    159 N14        -4.4200   -1.4220    0.8390 n         1 MOL     -0.334599
    160 C53        -3.5000   -1.6900    1.9520 c3        1 MOL     -0.067704
    161 C54        -4.2230   -1.1330    3.2860 c         1 MOL      0.461054
    162 O24        -4.0740   -1.7270    4.3650 o         1 MOL     -0.578948
    163 C55        -2.0890   -1.1700    1.6840 c3        1 MOL      0.104595
    164 C56        -1.4400   -1.6530    0.4480 c3        1 MOL     -0.043593
    165 C57        -0.0940   -1.0490   -0.0880 c         1 MOL      0.786828
    166 O25         0.8620   -1.7900   -0.2490 o         1 MOL     -0.766006
    167 O26         0.0020    0.2100   -0.2760 o         1 MOL     -0.766006
    168 H71        -4.1760   -0.5670    0.3620 hn        1 MOL      0.249380
    169 H72        -3.5650   -2.7690    2.1240 h1        1 MOL      0.106548
    170 H73        -1.4160   -1.2220    2.5330 hc        1 MOL      0.000266
    171 H74        -2.1850   -0.0880    1.5480 hc        1 MOL      0.000266
    172 H75        -2.0840   -1.4350   -0.4070 hc        1 MOL      0.011148
    173 H76        -1.2330   -2.7260    0.4720 hc        1 MOL      0.011148
    174 N15        -4.9540   -0.0440    3.1760 n         1 MOL      0.066483
    175 C58        -5.7680    0.4120    4.3030 c3        1 MOL     -0.327699
    176 H77        -5.1320    0.5490    5.1780 h1        1 MOL      0.101090
    177 H78        -6.2440    1.3590    4.0480 h1        1 MOL      0.101090
    178 H79        -6.5330   -0.3320    4.5240 h1        1 MOL      0.101090
    179 H80        -4.9140    0.4400    2.2970 hn        1 MOL     -0.031342
    180 Ca1         2.3800    0.3270   -1.2590 Ca        1 MOL      1.790144
    181 O27         2.2240    2.7750   -2.5060 oh        1 MOL     -0.917845
    182 H81         2.0390    3.4130   -3.1940 ho        1 MOL      0.426498
    183 H82         3.1790    2.7520   -2.4680 ho        1 MOL      0.426498
    184 O28         0.5910   -0.1560   -3.6130 oh        1 MOL     -0.917845
    185 H83         1.2210   -0.8490   -3.8100 ho        1 MOL      0.426498
    186 H84        -0.2090   -0.4220   -4.0720 ho        1 MOL      0.426498
@<TRIPOS>BOND
     1    1    2 1   
     2    1    4 1   
     3    1    5 1   
     4    1    6 1   
     5    2    3 2   
     6    2    7 1   
     7    7    8 1   
     8    7   15 1   
     9    8    9 1   
    10    8   11 1   
    11    8   16 1   
    12    9   10 2   
    13    9   19 1   
    14   11   12 1   
    15   11   17 1   
    16   11   18 1   
    17   12   13 1   
    18   12   14 1   
    19   19   20 1   
    20   19   27 1   
    21   20   21 1   
    22   20   23 1   
    23   20   28 1   
    24   21   22 2   
    25   21   38 1   
    26   23   24 1   
    27   23   25 1   
    28   23   29 1   
    29   24   26 1   
    30   24   30 1   
    31   24   31 1   
    32   25   32 1   
    33   25   33 1   
    34   25   34 1   
    35   26   35 1   
    36   26   36 1   
    37   26   37 1   
    38   38   39 1   
    39   38   46 1   
    40   39   40 1   
    41   39   42 1   
    42   39   47 1   
    43   40   41 2   
    44   40   50 1   
    45   42   43 1   
    46   42   48 1   
    47   42   49 1   
    48   43   44 1   
    49   43   45 1   
    50   50   51 1   
    51   50   54 1   
    52   51   52 1   
    53   51   55 1   
    54   51   56 1   
    55   52   53 2   
    56   52   57 1   
    57   57   58 1   
    58   57   65 1   
    59   58   59 1   
    60   58   61 1   
    61   58   66 1   
    62   59   60 2   
    63   59   69 1   
    64   61   62 1   
    65   61   67 1   
    66   61   68 1   
    67   62   63 1   
    68   62   64 1   
    69   69   70 1   
    70   69   73 1   
    71   70   71 1   
    72   70   74 1   
    73   70   75 1   
    74   71   72 2   
    75   71   76 1   
    76   76   77 1   
    77   76   85 1   
    78   77   78 1   
    79   77   80 1   
    80   77   86 1   
    81   78   79 2   
    82   78   93 1   
    83   80   81 1   
    84   80   87 1   
    85   80   88 1   
    86   81   82 1   
    87   81   89 1   
    88   81   90 1   
    89   82   83 1   
    90   82   84 2   
    91   83   91 1   
    92   83   92 1   
    93   93   94 1   
    94   93  100 1   
    95   94   95 1   
    96   94   97 1   
    97   94  101 1   
    98   95   96 2   
    99   95  109 1   
   100   97   98 1   
   101   97   99 1   
   102   97  102 1   
   103   98  103 1   
   104   98  104 1   
   105   98  105 1   
   106   99  106 1   
   107   99  107 1   
   108   99  108 1   
   109  109  110 1   
   110  109  117 1   
   111  110  111 1   
   112  110  113 1   
   113  110  118 1   
   114  111  112 2   
   115  111  123 1   
   116  113  114 1   
   117  113  119 1   
   118  113  120 1   
   119  114  115 1   
   120  114  116 2   
   121  115  121 1   
   122  115  122 1   
   123  123  124 1   
   124  123  135 1   
   125  124  125 1   
   126  124  127 1   
   127  124  136 1   
   128  125  126 2   
   129  125  144 1   
   130  127  128 1   
   131  127  137 1   
   132  127  138 1   
   133  128  129 ar  
   134  128  130 ar  
   135  129  131 ar  
   136  129  139 1   
   137  130  132 ar  
   138  130  140 1   
   139  131  133 ar  
   140  131  141 1   
   141  132  133 ar  
   142  132  142 1   
   143  133  134 1   
   144  134  143 1   
   145  144  145 1   
   146  144  153 1   
   147  145  146 1   
   148  145  148 1   
   149  145  154 1   
   150  146  147 2   
   151  146  159 1   
   152  148  149 1   
   153  148  155 1   
   154  148  156 1   
   155  149  150 1   
   156  149  157 1   
   157  149  158 1   
   158  150  151 1   
   159  150  152 1   
   160  159  160 1   
   161  159  168 1   
   162  160  161 1   
   163  160  163 1   
   164  160  169 1   
   165  161  162 2   
   166  161  174 1   
   167  163  164 1   
   168  163  170 1   
   169  163  171 1   
   170  164  165 1   
   171  164  172 1   
   172  164  173 1   
   173  165  166 1   
   174  165  167 1   
   175  174  175 1   
   176  174  179 1   
   177  175  176 1   
   178  175  177 1   
   179  175  178 1   
   180  181  182 1   
   181  181  183 1   
   182  184  185 1   
   183  184  186 1   
@<TRIPOS>SUBSTRUCTURE
     1 MOL         1 TEMP              0 ****  ****    0 ROOT
