@<TRIPOS>MOLECULE
MOL
  189   185     1     0     0
SMALL
resp


@<TRIPOS>ATOM
      1 C1         -0.3320    1.8800    6.2330 c3        1 MOL     -0.463488
      2 C2         -0.6280    1.6900    4.7370 c         1 MOL      0.699906
      3 O1          0.1860    1.9250    3.8910 o         1 MOL     -0.593274
      4 H1          0.6230    1.4160    6.4750 hc        1 MOL      0.119055
      5 H2         -0.2860    2.9450    6.4620 hc        1 MOL      0.119055
      6 H3         -1.1220    1.4150    6.8220 hc        1 MOL      0.119055
      7 N1         -1.8520    1.2810    4.4350 n         1 MOL     -0.526644
      8 C3         -2.3150    1.2540    3.0570 c3        1 MOL      0.031236
      9 C4         -2.3310    2.7220    2.5070 c         1 MOL      0.470434
     10 O2         -3.2590    3.5050    2.7500 o         1 MOL     -0.513625
     11 C5         -3.7380    0.6140    3.0310 c3        1 MOL     -0.109000
     12 C6         -4.2370    0.3400    1.6060 c         1 MOL      0.828985
     13 O3         -3.5980    0.7210    0.5860 o         1 MOL     -0.714302
     14 O4         -5.3610   -0.1780    1.5920 o         1 MOL     -0.714302
     15 H4         -2.4580    1.0410    5.2120 hn        1 MOL      0.320282
     16 H5         -1.6270    0.6470    2.4720 h1        1 MOL     -0.006661
     17 H6         -4.4310    1.3180    3.5000 hc        1 MOL      0.040232
     18 H7         -3.7540   -0.3130    3.6090 hc        1 MOL      0.040232
     19 N2         -1.3120    3.0530    1.7030 n         1 MOL     -0.195109
     20 C7         -0.9880    4.5280    1.3640 c3        1 MOL     -0.024626
     21 C8         -1.9380    5.0160    0.2930 c         1 MOL      0.434709
     22 O5         -2.4480    6.1450    0.5050 o         1 MOL     -0.582460
     23 C9          0.5580    4.8390    1.0900 c3        1 MOL     -0.139845
     24 C10         0.7480    6.3220    0.8400 c3        1 MOL     -0.015221
     25 C11         2.2030    6.8140    0.8530 c3        1 MOL      0.103265
     26 C12         2.3110    8.3370    0.8200 c3        1 MOL     -0.014107
     27 N3          3.7270    8.8710    0.7380 n4        1 MOL     -0.241222
     28 H8         -0.7490    2.3410    1.2800 hn        1 MOL      0.196279
     29 H9         -1.3210    5.1350    2.2210 h1        1 MOL      0.102742
     30 H10         0.8650    4.3140    0.1810 hc        1 MOL      0.084927
     31 H11         1.2070    4.5510    1.9210 hc        1 MOL      0.084927
     32 H12         0.2260    6.9420    1.5670 hc        1 MOL      0.024193
     33 H13         0.3460    6.5750   -0.1420 hc        1 MOL      0.024193
     34 H14         2.7370    6.4410   -0.0170 hc        1 MOL     -0.010327
     35 H15         2.7540    6.4050    1.7050 hc        1 MOL     -0.010327
     36 H16         1.8620    8.8090    1.6920 hx        1 MOL      0.090547
     37 H17         1.7910    8.6790   -0.0750 hx        1 MOL      0.090547
     38 H18         4.1580    8.7200   -0.1600 hn        1 MOL      0.291000
     39 H19         3.8290    9.8640    0.8590 hn        1 MOL      0.291000
     40 H20         4.3640    8.4180    1.3820 hn        1 MOL      0.291000
     41 N4         -2.2440    4.2680   -0.7790 n         1 MOL     -0.151351
     42 C13        -3.2110    4.6950   -1.7790 c3        1 MOL     -0.083526
     43 C14        -4.6400    4.0560   -1.5120 c         1 MOL      0.465929
     44 O6         -5.5770    4.4640   -2.1750 o         1 MOL     -0.518564
     45 C15        -2.7040    4.3200   -3.1640 c3        1 MOL     -0.259392
     46 C16        -2.2640    2.8360   -3.3620 c         1 MOL      0.807470
     47 O7         -1.8110    2.5940   -4.4980 o         1 MOL     -0.715535
     48 O8         -2.2320    2.0380   -2.4140 o         1 MOL     -0.715535
     49 H21        -1.7120    3.4330   -1.0020 hn        1 MOL      0.145459
     50 H22        -3.2920    5.7820   -1.7130 h1        1 MOL      0.098911
     51 H23        -1.9180    5.0040   -3.4900 hc        1 MOL      0.074092
     52 H24        -3.5340    4.4830   -3.8580 hc        1 MOL      0.074092
     53 N5         -4.7730    3.1450   -0.5750 n         1 MOL     -0.022468
     54 C17        -6.0960    2.5380   -0.2100 c3        1 MOL     -0.250153
     55 C18        -6.8200    1.6420   -1.2260 c         1 MOL      0.724823
     56 O9         -7.5350    2.1540   -2.1060 o         1 MOL     -0.542663
     57 H25        -4.0110    2.8210    0.0120 hn        1 MOL      0.067163
     58 H26        -6.8230    3.3450   -0.0580 h1        1 MOL      0.089066
     59 H27        -5.9510    1.9840    0.7180 h1        1 MOL      0.089066
     60 N6         -6.7060    0.3350   -1.0320 n         1 MOL     -0.581121
     61 C19        -7.2050   -0.7430   -1.8790 c3        1 MOL      0.079838
     62 C20        -7.3880   -1.9760   -1.0220 c         1 MOL      0.370957
     63 O10        -7.7390   -3.0700   -1.5370 o         1 MOL     -0.503821
     64 C21        -6.2700   -0.7970   -3.1170 c3        1 MOL     -0.186474
     65 C22        -4.8010   -0.9550   -2.8020 c         1 MOL      0.756597
     66 O11        -4.4130   -1.5430   -1.8410 o         1 MOL     -0.709122
     67 O12        -3.9390   -0.3570   -3.4910 o         1 MOL     -0.709122
     68 H28        -6.0400    0.1340   -0.2970 hn        1 MOL      0.190034
     69 H29        -8.1950   -0.4700   -2.2380 h1        1 MOL      0.102008
     70 H30        -6.4920    0.0360   -3.7900 hc        1 MOL      0.072999
     71 H31        -6.5900   -1.6900   -3.6700 hc        1 MOL      0.072999
     72 N7         -7.0830   -1.9420    0.3130 n         1 MOL     -0.192920
     73 C23        -7.0220   -3.0530    1.2250 c3        1 MOL     -0.230604
     74 C24        -5.8590   -4.0410    0.9670 c         1 MOL      0.640825
     75 O13        -5.8510   -5.1920    1.3750 o         1 MOL     -0.595351
     76 H32        -6.9250   -0.9970    0.6510 hn        1 MOL      0.277577
     77 H33        -7.8950   -3.7070    1.1410 h1        1 MOL      0.106994
     78 H34        -6.8740   -2.6920    2.2400 h1        1 MOL      0.106994
     79 N8         -4.7380   -3.5850    0.3940 n         1 MOL     -0.243315
     80 C25        -3.4500   -4.3670    0.2990 c3        1 MOL     -0.334976
     81 C26        -2.2570   -3.5010    0.6220 c         1 MOL      0.806339
     82 O14        -2.2430   -2.3350    0.3760 o         1 MOL     -0.695247
     83 C27        -3.2420   -5.0970   -1.0520 c3        1 MOL      0.574930
     84 C28        -3.9590   -6.4140   -1.0250 c3        1 MOL     -0.438063
     85 O15        -3.8000   -4.3980   -2.1290 oh        1 MOL     -0.668879
     86 H35        -4.6030   -2.6380    0.0710 hn        1 MOL      0.160214
     87 H36        -3.4010   -5.1270    1.0720 h1        1 MOL      0.137280
     88 H37        -2.2180   -5.2880   -1.3680 h1        1 MOL     -0.027061
     89 H38        -3.8690   -3.4630   -1.8980 ho        1 MOL      0.469679
     90 H39        -3.9050   -6.8930   -2.0040 hc        1 MOL      0.103773
     91 H40        -3.4550   -7.0710   -0.3110 hc        1 MOL      0.103773
     92 H41        -5.0230   -6.2960   -0.8220 hc        1 MOL      0.103773
     93 N9         -1.1780   -4.1430    1.0220 n         1 MOL     -0.773665
     94 C29         0.1330   -3.4580    1.2350 c3        1 MOL      0.319597
     95 C30         1.2640   -3.8880    0.3370 c         1 MOL      0.510902
     96 O16         1.4960   -5.0620    0.1780 o         1 MOL     -0.568646
     97 C31         0.4470   -3.6840    2.8050 c3        1 MOL     -0.095871
     98 C32        -0.5080   -2.6860    3.6130 c3        1 MOL     -0.035699
     99 C33         1.9230   -3.5570    3.1280 c3        1 MOL     -0.071441
    100 C34        -0.4040   -2.8740    5.1820 c3        1 MOL     -0.098273
    101 H42        -1.2380   -5.1030    1.3340 hn        1 MOL      0.342661
    102 H43         0.0660   -2.3730    1.1720 h1        1 MOL     -0.007662
    103 H44         0.2460   -4.7280    3.0200 hc        1 MOL      0.056687
    104 H45        -1.5890   -2.7750    3.5190 hc        1 MOL      0.062011
    105 H46        -0.3210   -1.6260    3.4480 hc        1 MOL      0.062011
    106 H47         2.5910   -4.1720    2.5140 hc        1 MOL      0.021879
    107 H48         2.1440   -2.4960    3.0160 hc        1 MOL      0.021879
    108 H49         2.1410   -3.8920    4.1330 hc        1 MOL      0.021879
    109 H50        -0.7340   -3.8910    5.4310 hc        1 MOL      0.019044
    110 H51         0.5800   -2.7640    5.6270 hc        1 MOL      0.019044
    111 H52        -1.1240   -2.2200    5.6830 hc        1 MOL      0.019044
    112 N10         1.8850   -2.9660   -0.3860 n         1 MOL     -0.188662
    113 C35         3.1140   -3.2250   -1.2270 c3        1 MOL     -0.076105
    114 C36         4.3710   -3.0780   -0.2700 c         1 MOL      0.202205
    115 O17         4.3020   -2.7170    0.9150 o         1 MOL     -0.230162
    116 C37         3.3150   -2.1050   -2.3160 c3        1 MOL      0.304809
    117 C38         2.2280   -2.3760   -3.3780 c3        1 MOL     -0.408220
    118 O18         3.0860   -0.8020   -1.7620 oh        1 MOL     -0.613221
    119 H53         1.6280   -1.9970   -0.2900 hn        1 MOL      0.056909
    120 H54         3.1090   -4.2320   -1.6250 h1        1 MOL      0.102333
    121 H55         4.3290   -2.1750   -2.6890 h1        1 MOL     -0.015604
    122 H56         2.1660   -0.6390   -1.5390 ho        1 MOL      0.395195
    123 H57         1.2430   -2.5210   -2.9440 hc        1 MOL      0.114802
    124 H58         2.1460   -1.5090   -4.0320 hc        1 MOL      0.114802
    125 H59         2.3880   -3.2700   -3.9930 hc        1 MOL      0.114802
    126 N11         5.5250   -3.3160   -0.8560 n         1 MOL     -0.060766
    127 C39         6.8520   -3.1090   -0.2290 c3        1 MOL     -0.453095
    128 C40         6.9340   -1.6950    0.4340 c         1 MOL      0.413258
    129 O19         7.3480   -1.5250    1.5920 o         1 MOL     -0.463452
    130 C41         7.9530   -3.1720   -1.4310 c3        1 MOL      0.602197
    131 C42         8.2630   -4.6020   -1.7400 c3        1 MOL     -0.426594
    132 O20         7.8050   -2.2650   -2.4660 oh        1 MOL     -0.669598
    133 H60         5.4750   -3.8350   -1.7210 hn        1 MOL      0.220029
    134 H61         7.0400   -3.8720    0.5370 h1        1 MOL      0.204229
    135 H62         8.9320   -2.8410   -1.0690 h1        1 MOL     -0.021520
    136 H63         8.6900   -1.9910   -2.7230 ho        1 MOL      0.345415
    137 H64         7.4510   -4.9740   -2.3540 hc        1 MOL      0.109134
    138 H65         9.1930   -4.5850   -2.3110 hc        1 MOL      0.109134
    139 H66         8.3900   -5.2280   -0.8530 hc        1 MOL      0.109134
    140 N12         6.5880   -0.6460   -0.3170 n         1 MOL     -0.363271
    141 C43         6.6930    0.7750    0.0950 c3        1 MOL     -0.007413
    142 C44         5.6000    1.2180    1.0850 c         1 MOL      0.393776
    143 O21         5.6980    2.3030    1.6410 o         1 MOL     -0.562351
    144 C45         6.6610    1.7240   -1.2060 c3        1 MOL     -0.048751
    145 C46         7.6630    1.3430   -2.3030 c3        1 MOL      0.105156
    146 C47         7.5590    2.2990   -3.5130 c3        1 MOL     -0.082825
    147 C48         8.6110    2.3080   -4.5520 c3        1 MOL      0.151674
    148 N13         8.9250    0.9860   -5.1000 n4        1 MOL     -0.358662
    149 H67         6.1710   -0.8090   -1.2170 hn        1 MOL      0.379729
    150 H68         7.6230    1.0510    0.6080 h1        1 MOL      0.111660
    151 H69         6.8240    2.7650   -0.9310 hc        1 MOL      0.029264
    152 H70         5.6720    1.6290   -1.6660 hc        1 MOL      0.029264
    153 H71         7.4250    0.3190   -2.5890 hc        1 MOL     -0.045501
    154 H72         8.6930    1.3150   -1.9470 hc        1 MOL     -0.045501
    155 H73         7.5520    3.3290   -3.1600 hc        1 MOL      0.050914
    156 H74         6.6740    2.1220   -4.1210 hc        1 MOL      0.050914
    157 H75         9.5120    2.7950   -4.1960 hx        1 MOL      0.048016
    158 H76         8.2270    2.9870   -5.3120 hx        1 MOL      0.048016
    159 H77         9.5000    1.0400   -5.9170 hn        1 MOL      0.284350
    160 H78         9.4100    0.4340   -4.3960 hn        1 MOL      0.284350
    161 H79         8.0590    0.5140   -5.3120 hn        1 MOL      0.284350
    162 N14         4.5400    0.4650    1.1770 n         1 MOL      0.032361
    163 C49         3.5400    0.6700    2.2430 c3        1 MOL     -0.123422
    164 C50         3.9860   -0.1180    3.4210 c         1 MOL      0.483762
    165 O22         3.7750    0.3650    4.5500 o         1 MOL     -0.562016
    166 C51         2.1770    0.2550    1.7620 c3        1 MOL      0.247543
    167 C52         1.7050    1.2780    0.7460 c3        1 MOL      0.013345
    168 C53         0.6750    0.7580   -0.2350 c         1 MOL      0.648999
    169 O23         0.7650   -0.3820   -0.7240 o         1 MOL     -0.652166
    170 O24        -0.3950    1.3310   -0.3890 o         1 MOL     -0.652166
    171 H80         4.5630   -0.3700    0.6110 hn        1 MOL     -0.070857
    172 H81         3.4650    1.7070    2.5640 h1        1 MOL      0.104484
    173 H82         1.5500    0.1220    2.6390 hc        1 MOL     -0.003492
    174 H83         2.1980   -0.7850    1.4340 hc        1 MOL     -0.003492
    175 H84         2.5370    1.7130    0.1810 hc        1 MOL     -0.057972
    176 H85         1.2780    2.0970    1.3260 hc        1 MOL     -0.057972
    177 N15         4.6170   -1.2650    3.1960 n         1 MOL     -0.151280
    178 C54         5.1850   -2.0550    4.2820 c3        1 MOL     -0.237593
    179 H86         5.0050   -1.5490    5.2310 h1        1 MOL      0.095342
    180 H87         4.7160   -3.0380    4.3010 h1        1 MOL      0.095342
    181 H88         6.2580   -2.1670    4.1290 h1        1 MOL      0.095342
    182 H89         4.7100   -1.6020    2.2480 hn        1 MOL      0.148765
    183 Ca1        -2.1040   -0.2610   -1.3480 Ca        1 MOL      1.761986
    184 O25        -1.5230   -2.4600   -2.9140 oh        1 MOL     -0.861366
    185 H90        -0.9300   -2.0690   -3.5560 ho        1 MOL      0.398077
    186 H91        -2.2090   -2.8710   -3.4330 ho        1 MOL      0.398077
    187 O26        -0.5450    0.0720   -3.8970 oh        1 MOL     -0.861366
    188 H92         0.0800   -0.0150   -4.6260 ho        1 MOL      0.398077
    189 H93        -1.0900    0.8190   -4.1570 ho        1 MOL      0.398077
@<TRIPOS>BOND
     1    1    2 1   
     2    1    4 1   
     3    1    5 1   
     4    1    6 1   
     5    2    3 2   
     6    2    7 1   
     7    7    8 1   
     8    7   15 1   
     9    8    9 1   
    10    8   11 1   
    11    8   16 1   
    12    9   10 2   
    13    9   19 1   
    14   11   12 1   
    15   11   17 1   
    16   11   18 1   
    17   12   13 1   
    18   12   14 1   
    19   19   20 1   
    20   19   28 1   
    21   20   21 1   
    22   20   23 1   
    23   20   29 1   
    24   21   22 2   
    25   21   41 1   
    26   23   24 1   
    27   23   30 1   
    28   23   31 1   
    29   24   25 1   
    30   24   32 1   
    31   24   33 1   
    32   25   26 1   
    33   25   34 1   
    34   25   35 1   
    35   26   27 1   
    36   26   36 1   
    37   26   37 1   
    38   27   38 1   
    39   27   39 1   
    40   27   40 1   
    41   41   42 1   
    42   41   49 1   
    43   42   43 1   
    44   42   45 1   
    45   42   50 1   
    46   43   44 2   
    47   43   53 1   
    48   45   46 1   
    49   45   51 1   
    50   45   52 1   
    51   46   47 1   
    52   46   48 1   
    53   53   54 1   
    54   53   57 1   
    55   54   55 1   
    56   54   58 1   
    57   54   59 1   
    58   55   56 2   
    59   55   60 1   
    60   60   61 1   
    61   60   68 1   
    62   61   62 1   
    63   61   64 1   
    64   61   69 1   
    65   62   63 2   
    66   62   72 1   
    67   64   65 1   
    68   64   70 1   
    69   64   71 1   
    70   65   66 1   
    71   65   67 1   
    72   72   73 1   
    73   72   76 1   
    74   73   74 1   
    75   73   77 1   
    76   73   78 1   
    77   74   75 2   
    78   74   79 1   
    79   79   80 1   
    80   79   86 1   
    81   80   81 1   
    82   80   83 1   
    83   80   87 1   
    84   81   82 2   
    85   81   93 1   
    86   83   84 1   
    87   83   85 1   
    88   83   88 1   
    89   84   90 1   
    90   84   91 1   
    91   84   92 1   
    92   85   89 1   
    93   93   94 1   
    94   93  101 1   
    95   94   95 1   
    96   94   97 1   
    97   94  102 1   
    98   95   96 2   
    99   95  112 1   
   100   97   98 1   
   101   97   99 1   
   102   97  103 1   
   103   98  100 1   
   104   98  104 1   
   105   98  105 1   
   106   99  106 1   
   107   99  107 1   
   108   99  108 1   
   109  100  109 1   
   110  100  110 1   
   111  100  111 1   
   112  112  113 1   
   113  112  119 1   
   114  113  114 1   
   115  113  116 1   
   116  113  120 1   
   117  114  115 2   
   118  114  126 1   
   119  116  117 1   
   120  116  118 1   
   121  116  121 1   
   122  117  123 1   
   123  117  124 1   
   124  117  125 1   
   125  118  122 1   
   126  126  127 1   
   127  126  133 1   
   128  127  128 1   
   129  127  130 1   
   130  127  134 1   
   131  128  129 2   
   132  128  140 1   
   133  130  131 1   
   134  130  132 1   
   135  130  135 1   
   136  131  137 1   
   137  131  138 1   
   138  131  139 1   
   139  132  136 1   
   140  140  141 1   
   141  140  149 1   
   142  141  142 1   
   143  141  144 1   
   144  141  150 1   
   145  142  143 2   
   146  142  162 1   
   147  144  145 1   
   148  144  151 1   
   149  144  152 1   
   150  145  146 1   
   151  145  153 1   
   152  145  154 1   
   153  146  147 1   
   154  146  155 1   
   155  146  156 1   
   156  147  148 1   
   157  147  157 1   
   158  147  158 1   
   159  148  159 1   
   160  148  160 1   
   161  148  161 1   
   162  162  163 1   
   163  162  171 1   
   164  163  164 1   
   165  163  166 1   
   166  163  172 1   
   167  164  165 2   
   168  164  177 1   
   169  166  167 1   
   170  166  173 1   
   171  166  174 1   
   172  167  168 1   
   173  167  175 1   
   174  167  176 1   
   175  168  169 1   
   176  168  170 1   
   177  177  178 1   
   178  177  182 1   
   179  178  179 1   
   180  178  180 1   
   181  178  181 1   
   182  184  185 1   
   183  184  186 1   
   184  187  188 1   
   185  187  189 1   
@<TRIPOS>SUBSTRUCTURE
     1 MOL         1 TEMP              0 ****  ****    0 ROOT
