@<TRIPOS>MOLECULE
MOL
  182   178     1     0     0
SMALL
resp


@<TRIPOS>ATOM
      1 C1          2.2150    2.6200    5.5500 c3        1 MOL     -0.274866
      2 C2          1.6230    2.4290    4.1180 c         1 MOL      0.819311
      3 O1          2.3130    2.3380    3.1130 o         1 MOL     -0.645501
      4 H1          1.6690    1.9920    6.2550 hc        1 MOL      0.061686
      5 H2          3.2670    2.3350    5.5510 hc        1 MOL      0.061686
      6 H3          2.1200    3.6640    5.8480 hc        1 MOL      0.061686
      7 N1          0.3020    2.2460    4.1110 n         1 MOL     -0.694581
      8 C3         -0.5210    2.2960    2.8780 c3        1 MOL      0.079577
      9 C4         -0.4170    3.7250    2.1840 c         1 MOL      0.392157
     10 O2         -0.8750    4.7230    2.8060 o         1 MOL     -0.521561
     11 C5         -1.9530    1.7730    3.0280 c3        1 MOL     -0.124797
     12 C6         -2.6860    1.5140    1.7010 c         1 MOL      0.772300
     13 O3         -2.0830    1.6000    0.5900 o         1 MOL     -0.780542
     14 O4         -3.8670    1.1120    1.7140 o         1 MOL     -0.780542
     15 H4         -0.2460    2.3220    4.9630 hn        1 MOL      0.350436
     16 H5         -0.0410    1.5480    2.2520 h1        1 MOL      0.124007
     17 H6         -2.5410    2.4570    3.6330 hc        1 MOL      0.056388
     18 H7         -1.9110    0.9120    3.6940 hc        1 MOL      0.056388
     19 N2         -0.0480    3.8420    0.8660 n         1 MOL     -0.045907
     20 C7          0.1280    5.1660    0.1970 c3        1 MOL     -0.243516
     21 C8         -1.2190    5.7210   -0.2790 c         1 MOL      0.603497
     22 O5         -1.4850    6.9550   -0.1140 o         1 MOL     -0.597325
     23 C9          0.9530    5.0140   -1.0690 c3        1 MOL     -0.060321
     24 C10         2.4370    4.8870   -0.7690 c3        1 MOL      0.224283
     25 C11         3.0370    6.1800   -0.2440 c3        1 MOL     -0.126244
     26 C12         4.5580    6.0130   -0.0430 c3        1 MOL      0.103955
     27 N3          4.8810    6.7330    1.2310 n4        1 MOL     -0.293855
     28 H8          0.3230    3.0180    0.4190 hn        1 MOL      0.047985
     29 H9          0.5560    5.9180    0.8670 h1        1 MOL      0.096417
     30 H10         0.8000    5.9250   -1.6390 hc        1 MOL      0.011521
     31 H11         0.6460    4.2200   -1.7490 hc        1 MOL      0.011521
     32 H12         2.8700    4.6610   -1.7480 hc        1 MOL      0.005079
     33 H13         2.5920    4.0250   -0.1210 hc        1 MOL      0.005079
     34 H14         2.6410    6.4090    0.7510 hc        1 MOL      0.051380
     35 H15         2.8900    7.0160   -0.9190 hc        1 MOL      0.051380
     36 H16         5.1270    6.4280   -0.8720 hx        1 MOL      0.052566
     37 H17         4.8210    4.9680    0.0730 hx        1 MOL      0.052566
     38 H18         4.5180    6.3060    2.0700 hn        1 MOL      0.307228
     39 H19         5.8720    6.7360    1.4140 hn        1 MOL      0.307228
     40 H20         4.5890    7.7020    1.2390 hn        1 MOL      0.307228
     41 N4         -2.0790    4.8760   -0.7740 n         1 MOL     -0.424978
     42 C13        -3.2870    5.1880   -1.3920 c3        1 MOL      0.087235
     43 C14        -4.6010    4.6330   -0.7520 c         1 MOL      0.435833
     44 O6         -5.6730    4.9990   -1.1370 o         1 MOL     -0.537085
     45 C15        -3.2030    4.8340   -2.8990 c3        1 MOL     -0.319510
     46 C16        -2.7030    3.3840   -3.1660 c         1 MOL      0.856193
     47 O7         -2.6400    2.9730   -4.3460 o         1 MOL     -0.735143
     48 O8         -2.4280    2.6700   -2.1820 o         1 MOL     -0.735143
     49 H21        -1.7860    3.9210   -0.9320 hn        1 MOL      0.342499
     50 H22        -3.4460    6.2690   -1.3810 h1        1 MOL      0.109894
     51 H23        -2.4500    5.5120   -3.3000 hc        1 MOL      0.074332
     52 H24        -4.1990    4.9310   -3.3270 hc        1 MOL      0.074332
     53 N5         -4.5990    3.9190    0.3600 n         1 MOL     -0.183624
     54 C17        -5.7880    3.4780    1.1630 c3        1 MOL     -0.238856
     55 C18        -6.5340    2.3160    0.5260 c         1 MOL      0.592729
     56 O9         -7.7000    2.0620    0.9630 o         1 MOL     -0.589282
     57 H25        -3.7300    3.4530    0.5520 hn        1 MOL      0.140303
     58 H26        -6.4630    4.3360    1.1990 h1        1 MOL      0.131755
     59 H27        -5.4200    3.2470    2.1580 h1        1 MOL      0.131755
     60 N6         -5.9740    1.5810   -0.4210 n         1 MOL     -0.363920
     61 C19        -6.6220    0.3530   -0.9510 c3        1 MOL      0.103055
     62 C20        -6.7070   -0.7950    0.0400 c         1 MOL      0.398333
     63 O10        -7.4530   -1.6940   -0.1410 o         1 MOL     -0.515873
     64 C21        -5.9770   -0.0110   -2.2700 c3        1 MOL     -0.498277
     65 C22        -4.6840   -0.7880   -2.1140 c         1 MOL      0.703457
     66 N7         -4.4880   -1.8650   -2.7370 n         1 MOL     -0.787269
     67 O11        -3.8040   -0.2930   -1.4690 o         1 MOL     -0.542370
     68 H28        -4.9830    1.7540   -0.5240 hn        1 MOL      0.281860
     69 H29        -7.6730    0.6010   -1.0970 h1        1 MOL      0.103401
     70 H30        -5.7990    0.9060   -2.8320 hc        1 MOL      0.165456
     71 H31        -6.6880   -0.7110   -2.7030 hc        1 MOL      0.165456
     72 H32        -5.1340   -2.2050   -3.4310 hn        1 MOL      0.366549
     73 H33        -3.5900   -2.3130   -2.6320 hn        1 MOL      0.366549
     74 N8         -5.9960   -0.7570    1.1360 n         1 MOL     -0.164071
     75 C23        -6.0660   -1.8790    2.1070 c3        1 MOL     -0.186072
     76 C24        -4.9150   -2.9430    2.0790 c         1 MOL      0.472778
     77 O12        -4.9300   -3.9590    2.8250 o         1 MOL     -0.544148
     78 H34        -5.5070    0.0930    1.3920 hn        1 MOL      0.265787
     79 H35        -6.9890   -2.4320    1.9010 h1        1 MOL      0.112022
     80 H36        -6.2590   -1.5190    3.1120 h1        1 MOL      0.112022
     81 N9         -3.9340   -2.6350    1.2730 n         1 MOL     -0.232032
     82 C25        -2.7130   -3.5090    1.0800 c3        1 MOL      0.044709
     83 C26        -1.3860   -2.6890    0.8950 c         1 MOL      0.489380
     84 O13        -1.4860   -1.4850    0.4590 o         1 MOL     -0.581436
     85 C27        -3.0610   -4.5070   -0.0190 c3        1 MOL      0.057590
     86 C28        -4.4120   -5.2210    0.0620 ca        1 MOL     -0.155649
     87 C29        -5.4900   -4.7220   -0.7660 ca        1 MOL     -0.048364
     88 C30        -4.5400   -6.3360    0.8120 ca        1 MOL     -0.048364
     89 C31        -6.6470   -5.4720   -0.8560 ca        1 MOL     -0.272648
     90 C32        -5.6960   -7.1040    0.7050 ca        1 MOL     -0.272648
     91 C33        -6.7410   -6.6220   -0.0510 ca        1 MOL      0.404168
     92 O14        -7.7750   -7.4250   -0.2680 oh        1 MOL     -0.518910
     93 H37        -3.8710   -1.7650    0.7660 hn        1 MOL      0.203295
     94 H38        -2.7300   -4.0000    2.0610 h1        1 MOL      0.061421
     95 H39        -2.3020   -5.2930   -0.0360 hc        1 MOL     -0.008181
     96 H40        -3.0200   -3.9660   -0.9670 hc        1 MOL     -0.008181
     97 H41        -5.3780   -3.9040   -1.4680 ha        1 MOL      0.118715
     98 H42        -3.7150   -6.7190    1.3910 ha        1 MOL      0.118715
     99 H43        -7.4940   -5.1330   -1.4380 ha        1 MOL      0.134786
    100 H44        -5.7220   -8.1220    1.0840 ha        1 MOL      0.134786
    101 H45        -8.0950   -7.7060    0.5920 ho        1 MOL      0.363489
    102 N10        -0.2160   -3.2560    1.2220 n         1 MOL     -0.524941
    103 C34         1.0880   -2.6100    1.0230 c3        1 MOL      0.084470
    104 C35         2.1040   -3.5460    0.2100 c         1 MOL      0.422311
    105 O15         2.1290   -4.6980    0.6420 o         1 MOL     -0.553064
    106 C36         1.7630   -2.0190    2.3330 c3        1 MOL      0.229986
    107 C37         2.1850   -3.0990    3.3660 c3        1 MOL     -0.006369
    108 C38         0.6370   -1.1470    2.9300 c3        1 MOL     -0.295230
    109 C39         2.5460   -2.5420    4.7260 c3        1 MOL     -0.357259
    110 H46        -0.1550   -4.1970    1.5850 hn        1 MOL      0.332340
    111 H47         0.9340   -1.7410    0.3890 h1        1 MOL      0.100713
    112 H48         2.6780   -1.4550    2.1520 hc        1 MOL     -0.020282
    113 H49         3.1280   -3.4670    2.9620 hc        1 MOL      0.017517
    114 H50         1.4130   -3.8710    3.3800 hc        1 MOL      0.017517
    115 H51         1.0660   -0.5830    3.7540 hc        1 MOL      0.079397
    116 H52         0.2970   -0.4030    2.2130 hc        1 MOL      0.079397
    117 H53        -0.1450   -1.6950    3.4470 hc        1 MOL      0.079397
    118 H54         1.5750   -2.3100    5.1870 hc        1 MOL      0.091995
    119 H55         3.0660   -3.2640    5.3540 hc        1 MOL      0.091995
    120 H56         3.0870   -1.6010    4.6620 hc        1 MOL      0.091995
    121 N11         2.8200   -3.0360   -0.8160 n         1 MOL     -0.184841
    122 C40         3.8660   -3.7870   -1.4780 c3        1 MOL      0.032918
    123 C41         5.1610   -3.5250   -0.7260 c         1 MOL      0.555733
    124 O16         5.3090   -2.5090    0.0230 o         1 MOL     -0.422518
    125 C42         3.9830   -3.2820   -2.9550 c3        1 MOL     -0.317939
    126 O17         4.4520   -1.9430   -2.9520 oh        1 MOL     -0.375456
    127 H57         2.6210   -2.0850   -1.1130 hn        1 MOL      0.132068
    128 H58         3.6200   -4.8490   -1.4680 h1        1 MOL      0.089834
    129 H59         2.9670   -3.3130   -3.3690 h1        1 MOL      0.154534
    130 H60         4.7380   -3.8390   -3.5020 h1        1 MOL      0.154534
    131 H61         4.7190   -1.6580   -3.8250 ho        1 MOL      0.368991
    132 N12         6.2270   -4.3310   -1.0310 n         1 MOL     -0.678095
    133 C43         7.6700   -4.1010   -0.5740 c3        1 MOL      0.431591
    134 C44         8.1330   -2.6520   -0.7490 c         1 MOL      0.265605
    135 O18         8.7770   -2.1580    0.1910 o         1 MOL     -0.481512
    136 C45         8.4820   -5.0530   -1.4670 c3        1 MOL     -0.603126
    137 H62         6.0790   -5.0980   -1.6730 hn        1 MOL      0.334678
    138 H63         7.8610   -4.3570    0.4730 h1        1 MOL      0.042263
    139 H64         9.5370   -4.8410   -1.3080 hc        1 MOL      0.166881
    140 H65         8.3820   -6.0270   -0.9900 hc        1 MOL      0.166881
    141 H66         8.1220   -4.9290   -2.4850 hc        1 MOL      0.166881
    142 N13         7.8150   -2.0260   -1.8540 n         1 MOL     -0.265798
    143 C46         8.1290   -0.6560   -1.9970 c3        1 MOL      0.238458
    144 C47         7.3940    0.2990   -1.1730 c         1 MOL      0.310582
    145 O19         7.9660    1.3700   -0.8830 o         1 MOL     -0.515206
    146 C48         7.8530   -0.3670   -3.4450 c3        1 MOL     -0.393475
    147 H67         7.5020   -2.5430   -2.6670 hn        1 MOL      0.255755
    148 H68         9.1840   -0.5270   -1.7700 h1        1 MOL      0.059049
    149 H69         8.4200   -1.1290   -3.9710 hc        1 MOL      0.099136
    150 H70         6.7660   -0.4210   -3.5340 hc        1 MOL      0.099136
    151 H71         8.0780    0.6890   -3.6250 hc        1 MOL      0.099136
    152 N14         6.0850    0.0240   -0.8620 n         1 MOL      0.001075
    153 C49         5.4350    0.8030    0.1700 c3        1 MOL     -0.142384
    154 C50         6.0330    0.5880    1.5220 c         1 MOL      0.498554
    155 O20         6.1940    1.5820    2.2240 o         1 MOL     -0.549494
    156 C51         3.9410    0.4070    0.1160 c3        1 MOL      0.308460
    157 C52         3.2630    0.9200   -1.1240 c3        1 MOL      0.026916
    158 C53         1.6840    0.5940   -1.1840 c         1 MOL      0.690411
    159 O21         0.8260    1.3880   -0.7400 o         1 MOL     -0.695391
    160 O22         1.2020   -0.4640   -1.6580 o         1 MOL     -0.695391
    161 H72         5.5670   -0.7160   -1.3140 hn        1 MOL      0.050164
    162 H73         5.4540    1.8720   -0.0210 h1        1 MOL      0.069040
    163 H74         3.4490    0.7910    1.0170 hc        1 MOL     -0.082501
    164 H75         3.8310   -0.6790    0.1450 hc        1 MOL     -0.082501
    165 H76         3.7580    0.6230   -2.0500 hc        1 MOL     -0.080922
    166 H77         3.4460    1.9900   -1.0510 hc        1 MOL     -0.080922
    167 N15         6.4360   -0.6550    1.9060 n         1 MOL     -0.085983
    168 C54         6.9790   -0.9380    3.1850 c3        1 MOL     -0.393160
    169 H78         6.2680   -1.5330    3.7570 h1        1 MOL      0.135965
    170 H79         7.9090   -1.4950    3.0700 h1        1 MOL      0.135965
    171 H80         7.1770   -0.0040    3.7110 h1        1 MOL      0.135965
    172 H81         6.6450   -1.2760    1.1370 hn        1 MOL      0.135896
    173 Ca1        -1.3260    0.3520   -1.5450 Ca        1 MOL      1.750578
    174 O23        -1.3290   -1.9270   -2.7620 oh        1 MOL     -0.816190
    175 H82        -1.3380   -2.0290   -3.7070 ho        1 MOL      0.392014
    176 H83        -1.2660   -2.8130   -2.4210 ho        1 MOL      0.392014
    177 O24        -2.4310    0.3510   -4.0930 oh        1 MOL     -0.816190
    178 H84        -2.3060    1.2340   -4.4340 ho        1 MOL      0.392014
    179 H85        -2.4200   -0.2170   -4.8680 ho        1 MOL      0.392014
    180 O25         0.2310    2.1670   -3.6530 oh        1 MOL     -0.816190
    181 H86        -0.0270    3.0700   -3.5220 ho        1 MOL      0.392014
    182 H87         0.3500    2.0740   -4.6020 ho        1 MOL      0.392014
@<TRIPOS>BOND
     1    1    2 1   
     2    1    4 1   
     3    1    5 1   
     4    1    6 1   
     5    2    3 2   
     6    2    7 1   
     7    7    8 1   
     8    7   15 1   
     9    8    9 1   
    10    8   11 1   
    11    8   16 1   
    12    9   10 2   
    13    9   19 1   
    14   11   12 1   
    15   11   17 1   
    16   11   18 1   
    17   12   13 1   
    18   12   14 1   
    19   19   20 1   
    20   19   28 1   
    21   20   21 1   
    22   20   23 1   
    23   20   29 1   
    24   21   22 2   
    25   21   41 1   
    26   23   24 1   
    27   23   30 1   
    28   23   31 1   
    29   24   25 1   
    30   24   32 1   
    31   24   33 1   
    32   25   26 1   
    33   25   34 1   
    34   25   35 1   
    35   26   27 1   
    36   26   36 1   
    37   26   37 1   
    38   27   38 1   
    39   27   39 1   
    40   27   40 1   
    41   41   42 1   
    42   41   49 1   
    43   42   43 1   
    44   42   45 1   
    45   42   50 1   
    46   43   44 2   
    47   43   53 1   
    48   45   46 1   
    49   45   51 1   
    50   45   52 1   
    51   46   47 1   
    52   46   48 1   
    53   53   54 1   
    54   53   57 1   
    55   54   55 1   
    56   54   58 1   
    57   54   59 1   
    58   55   56 2   
    59   55   60 1   
    60   60   61 1   
    61   60   68 1   
    62   61   62 1   
    63   61   64 1   
    64   61   69 1   
    65   62   63 2   
    66   62   74 1   
    67   64   65 1   
    68   64   70 1   
    69   64   71 1   
    70   65   66 1   
    71   65   67 2   
    72   66   72 1   
    73   66   73 1   
    74   74   75 1   
    75   74   78 1   
    76   75   76 1   
    77   75   79 1   
    78   75   80 1   
    79   76   77 2   
    80   76   81 1   
    81   81   82 1   
    82   81   93 1   
    83   82   83 1   
    84   82   85 1   
    85   82   94 1   
    86   83   84 2   
    87   83  102 1   
    88   85   86 1   
    89   85   95 1   
    90   85   96 1   
    91   86   87 ar  
    92   86   88 ar  
    93   87   89 ar  
    94   87   97 1   
    95   88   90 ar  
    96   88   98 1   
    97   89   91 ar  
    98   89   99 1   
    99   90   91 ar  
   100   90  100 1   
   101   91   92 1   
   102   92  101 1   
   103  102  103 1   
   104  102  110 1   
   105  103  104 1   
   106  103  106 1   
   107  103  111 1   
   108  104  105 2   
   109  104  121 1   
   110  106  107 1   
   111  106  108 1   
   112  106  112 1   
   113  107  109 1   
   114  107  113 1   
   115  107  114 1   
   116  108  115 1   
   117  108  116 1   
   118  108  117 1   
   119  109  118 1   
   120  109  119 1   
   121  109  120 1   
   122  121  122 1   
   123  121  127 1   
   124  122  123 1   
   125  122  125 1   
   126  122  128 1   
   127  123  124 2   
   128  123  132 1   
   129  125  126 1   
   130  125  129 1   
   131  125  130 1   
   132  126  131 1   
   133  132  133 1   
   134  132  137 1   
   135  133  134 1   
   136  133  136 1   
   137  133  138 1   
   138  134  135 2   
   139  134  142 1   
   140  136  139 1   
   141  136  140 1   
   142  136  141 1   
   143  142  143 1   
   144  142  147 1   
   145  143  144 1   
   146  143  146 1   
   147  143  148 1   
   148  144  145 2   
   149  144  152 1   
   150  146  149 1   
   151  146  150 1   
   152  146  151 1   
   153  152  153 1   
   154  152  161 1   
   155  153  154 1   
   156  153  156 1   
   157  153  162 1   
   158  154  155 2   
   159  154  167 1   
   160  156  157 1   
   161  156  163 1   
   162  156  164 1   
   163  157  158 1   
   164  157  165 1   
   165  157  166 1   
   166  158  159 1   
   167  158  160 1   
   168  167  168 1   
   169  167  172 1   
   170  168  169 1   
   171  168  170 1   
   172  168  171 1   
   173  174  175 1   
   174  174  176 1   
   175  177  178 1   
   176  177  179 1   
   177  180  181 1   
   178  180  182 1   
@<TRIPOS>SUBSTRUCTURE
     1 MOL         1 TEMP              0 ****  ****    0 ROOT
