@<TRIPOS>MOLECULE
MOL
  183   181     1     0     0
SMALL
resp


@<TRIPOS>ATOM
      1 C1         -1.0350    1.1670    6.2720 c3        1 MOL     -0.289735
      2 C2         -1.4640    1.2970    4.7550 c         1 MOL      0.722614
      3 O1         -0.6900    1.8950    3.9650 o         1 MOL     -0.592642
      4 H1         -1.8830    1.4110    6.9110 hc        1 MOL      0.066054
      5 H2         -0.7110    0.1460    6.4720 hc        1 MOL      0.066054
      6 H3         -0.2150    1.8560    6.4790 hc        1 MOL      0.066054
      7 N1         -2.6230    0.7070    4.4000 n         1 MOL     -0.695263
      8 C3         -3.0820    0.7590    3.0150 c3        1 MOL      0.295033
      9 C4         -3.4020    2.2250    2.6880 c         1 MOL      0.463625
     10 O2         -4.3840    2.7680    3.1980 o         1 MOL     -0.572105
     11 C5         -4.2660   -0.1610    2.8050 c3        1 MOL     -0.369814
     12 C6         -5.0540    0.0840    1.5210 c         1 MOL      0.740929
     13 O3         -6.2500    0.1970    1.6540 o         1 MOL     -0.570585
     14 O4         -4.3870    0.3030    0.4990 o         1 MOL     -0.570585
     15 H4         -3.2040    0.3040    5.1250 hn        1 MOL      0.353309
     16 H5         -2.2820    0.4340    2.3510 h1        1 MOL      0.044599
     17 H6         -4.9380   -0.1260    3.6710 hc        1 MOL      0.068860
     18 H7         -3.8140   -1.1510    2.7750 hc        1 MOL      0.068860
     19 N2         -2.7690    2.7850    1.6690 n         1 MOL     -0.142311
     20 C7         -2.7970    4.2290    1.5200 c3        1 MOL     -0.093893
     21 C8         -3.8350    4.6490    0.5120 c         1 MOL      0.598782
     22 O5         -4.3690    5.7760    0.6630 o         1 MOL     -0.603438
     23 C9         -1.3540    4.6280    1.1680 c3        1 MOL      0.117858
     24 C10        -1.0070    6.0260    1.7670 c3        1 MOL      0.084978
     25 C11        -1.2050    4.8150   -0.4010 c3        1 MOL     -0.252919
     26 C12        -0.9060    5.8950    3.3200 c3        1 MOL     -0.261911
     27 H8         -2.0230    2.2640    1.2440 hn        1 MOL      0.077261
     28 H9         -3.1120    4.6720    2.4650 h1        1 MOL      0.084646
     29 H10        -0.6100    3.8730    1.4420 hc        1 MOL      0.102800
     30 H11        -1.7960    6.7660    1.5750 hc        1 MOL     -0.013872
     31 H12        -0.0770    6.3770    1.3350 hc        1 MOL     -0.013872
     32 H13        -0.1410    4.8650   -0.6280 hc        1 MOL      0.056445
     33 H14        -1.6440    3.8890   -0.7830 hc        1 MOL      0.056445
     34 H15        -1.6530    5.7550   -0.7370 hc        1 MOL      0.056445
     35 H16        -1.8310    5.5360    3.7840 hc        1 MOL      0.049087
     36 H17        -0.1020    5.1980    3.5560 hc        1 MOL      0.049087
     37 H18        -0.7450    6.8900    3.7500 hc        1 MOL      0.049087
     38 N3         -4.2540    3.8320   -0.4600 n         1 MOL     -0.372807
     39 C13        -4.9600    4.1880   -1.6380 c3        1 MOL     -0.000744
     40 C14        -6.2610    3.3850   -1.8240 c         1 MOL      0.429566
     41 O6         -6.9630    3.6210   -2.8340 o         1 MOL     -0.539765
     42 C15        -4.0000    4.1980   -2.8200 c3        1 MOL     -0.114260
     43 C16        -3.1730    2.8660   -2.9300 c         1 MOL      0.774382
     44 O7         -3.6530    1.7970   -2.4550 o         1 MOL     -0.735344
     45 O8         -2.0770    2.8450   -3.5810 o         1 MOL     -0.735344
     46 H19        -3.8040    2.9310   -0.4020 hn        1 MOL      0.098286
     47 H20        -5.2330    5.2400   -1.6450 h1        1 MOL      0.097867
     48 H21        -3.3080    4.9850   -2.5270 hc        1 MOL      0.031351
     49 H22        -4.5520    4.4720   -3.7220 hc        1 MOL      0.031351
     50 N4         -6.6780    2.5710   -0.8890 n         1 MOL     -0.183903
     51 C17        -7.9910    1.9260   -0.9060 c3        1 MOL     -0.186419
     52 C18        -8.1260    0.5780   -1.6200 c         1 MOL      0.617375
     53 O9         -8.9200    0.4710   -2.5320 o         1 MOL     -0.598279
     54 H23        -6.0900    2.4210   -0.0850 hn        1 MOL      0.231801
     55 H24        -8.7550    2.5810   -1.3370 h1        1 MOL      0.075008
     56 H25        -8.2200    1.6120    0.1140 h1        1 MOL      0.075008
     57 N5         -7.4090   -0.4730   -1.2750 n         1 MOL     -0.194365
     58 C19        -7.6370   -1.9150   -1.6650 c3        1 MOL      0.003290
     59 C20        -7.5780   -2.8720   -0.4720 c         1 MOL      0.364478
     60 O10        -8.0570   -4.0100   -0.5930 o         1 MOL     -0.565547
     61 C21        -6.5310   -2.2440   -2.7170 c3        1 MOL     -0.055108
     62 C22        -5.1130   -1.9670   -2.3360 c         1 MOL      0.735442
     63 O11        -4.2480   -1.8210   -3.2050 o         1 MOL     -0.749495
     64 O12        -4.7920   -2.0170   -1.1340 o         1 MOL     -0.749495
     65 H26        -6.5940   -0.3430   -0.6990 hn        1 MOL      0.009872
     66 H27        -8.5970   -1.9640   -2.1730 h1        1 MOL      0.067315
     67 H28        -6.7460   -1.6740   -3.6260 hc        1 MOL      0.022485
     68 H29        -6.6080   -3.2990   -3.0070 hc        1 MOL      0.022485
     69 N6         -6.9740   -2.4380    0.5850 n         1 MOL     -0.022868
     70 C23        -6.5490   -3.1930    1.7440 c3        1 MOL     -0.051503
     71 C24        -5.2850   -4.0530    1.7050 c         1 MOL      0.493431
     72 O13        -5.2270   -4.9990    2.4920 o         1 MOL     -0.611451
     73 H30        -6.6250   -1.4900    0.5190 hn        1 MOL     -0.032142
     74 H31        -7.4040   -3.7710    2.0970 h1        1 MOL      0.048908
     75 H32        -6.4120   -2.3700    2.4500 h1        1 MOL      0.048908
     76 N7         -4.3180   -3.8340    0.8880 n         1 MOL     -0.210424
     77 C25        -2.9270   -4.2910    0.9260 c3        1 MOL      0.040947
     78 C26        -1.9390   -3.1290    1.0190 c         1 MOL      0.719301
     79 O14        -2.2120   -1.9480    0.8330 o         1 MOL     -0.834745
     80 C27        -2.5460   -5.3310   -0.1180 c3        1 MOL     -0.287453
     81 C28        -2.5610   -4.7810   -1.5260 c3        1 MOL     -0.082250
     82 C29        -1.5850   -3.8170   -1.9710 c         1 MOL      0.504969
     83 N8         -0.3690   -4.2010   -2.4300 n         1 MOL     -0.814581
     84 O15        -1.7480   -2.6790   -1.8070 o         1 MOL     -0.349487
     85 H33        -4.5960   -3.2050    0.1520 hn        1 MOL      0.279717
     86 H34        -2.8090   -4.8260    1.8690 h1        1 MOL      0.037319
     87 H35        -3.2860   -6.1300   -0.0770 hc        1 MOL      0.088191
     88 H36        -1.5380   -5.6940    0.0740 hc        1 MOL      0.088191
     89 H37        -3.5650   -4.4130   -1.7500 hc        1 MOL      0.062262
     90 H38        -2.4860   -5.6330   -2.1960 hc        1 MOL      0.062262
     91 H39        -0.1200   -5.1760   -2.4140 hn        1 MOL      0.352698
     92 H40         0.2900   -3.5150   -2.7590 hn        1 MOL      0.352698
     93 N9         -0.6920   -3.5810    1.2970 n         1 MOL     -0.390163
     94 C30         0.4950   -2.7540    1.5490 c3        1 MOL      0.023697
     95 C31         1.7070   -3.1310    0.7160 c         1 MOL      0.332054
     96 O16         2.3040   -4.1370    1.0230 o         1 MOL     -0.546486
     97 C32         0.7770   -2.7120    3.0810 c3        1 MOL      0.262393
     98 C33         1.7610   -1.6300    3.5490 c3        1 MOL     -0.302557
     99 C34        -0.4910   -2.5420    3.9830 c3        1 MOL     -0.302557
    100 H41        -0.5320   -4.5570    1.5140 hn        1 MOL      0.257717
    101 H42         0.3800   -1.7100    1.2430 h1        1 MOL      0.173744
    102 H43         1.2000   -3.6680    3.3790 hc        1 MOL     -0.053573
    103 H44         2.7160   -1.8620    3.0760 hc        1 MOL      0.064634
    104 H45         1.4270   -0.6540    3.1880 hc        1 MOL      0.064634
    105 H46         1.8970   -1.7290    4.6240 hc        1 MOL      0.064634
    106 H47        -0.3340   -2.6960    5.0450 hc        1 MOL      0.064634
    107 H48        -0.8810   -1.5440    3.7800 hc        1 MOL      0.064634
    108 H49        -1.2400   -3.2830    3.6930 hc        1 MOL      0.064634
    109 N10         1.9600   -2.4550   -0.3840 n         1 MOL     -0.011120
    110 C35         3.2600   -2.5110   -1.0680 c3        1 MOL     -0.001717
    111 C36         4.4570   -2.1500   -0.0950 c         1 MOL      0.395014
    112 O17         4.2630   -1.4570    0.8870 o         1 MOL     -0.283023
    113 C37         3.2400   -1.5880   -2.2350 c3        1 MOL     -0.244729
    114 C38         2.2430   -2.1050   -3.2650 c         1 MOL      0.697820
    115 N11         1.1330   -1.3880   -3.3260 n         1 MOL     -0.752532
    116 O18         2.3700   -3.1180   -3.9120 o         1 MOL     -0.604612
    117 H50         1.4280   -1.6060   -0.5160 hn        1 MOL     -0.023154
    118 H51         3.3980   -3.5490   -1.3780 h1        1 MOL      0.054585
    119 H52         4.2450   -1.5290   -2.6560 hc        1 MOL      0.067034
    120 H53         2.8620   -0.6310   -1.8970 hc        1 MOL      0.067034
    121 H54         0.8430   -0.7350   -2.6120 hn        1 MOL      0.346899
    122 H55         0.5050   -1.7430   -4.0310 hn        1 MOL      0.346899
    123 N12         5.6770   -2.3220   -0.6030 n         1 MOL     -0.462205
    124 C39         6.7820   -1.7490    0.1180 c3        1 MOL      0.095504
    125 C40         6.8060   -0.2100    0.1080 c         1 MOL      0.623397
    126 O19         6.9990    0.4570    1.1290 o         1 MOL     -0.544428
    127 C41         8.1000   -2.2890   -0.5400 c3        1 MOL     -0.121428
    128 C42         9.4660   -1.7190   -0.0080 ca        1 MOL      0.028227
    129 C43         9.8560   -2.0540    1.3240 ca        1 MOL     -0.218173
    130 C44        10.1110   -0.7630   -0.7280 ca        1 MOL     -0.218173
    131 C45        11.0250   -1.4860    1.8750 ca        1 MOL     -0.151410
    132 C46        11.2380   -0.1700   -0.2020 ca        1 MOL     -0.151410
    133 C47        11.7190   -0.5810    1.0920 ca        1 MOL      0.256147
    134 O20        12.8420    0.0040    1.6290 oh        1 MOL     -0.538057
    135 H56         5.8320   -2.8490   -1.4470 hn        1 MOL      0.300134
    136 H57         6.8160   -2.0490    1.1690 h1        1 MOL      0.068813
    137 H58         8.0380   -2.1670   -1.6180 hc        1 MOL      0.044319
    138 H59         8.1150   -3.3710   -0.4210 hc        1 MOL      0.044319
    139 H60         9.2590   -2.6680    1.9680 ha        1 MOL      0.152336
    140 H61         9.8010   -0.4940   -1.7280 ha        1 MOL      0.152336
    141 H62        11.3310   -1.7660    2.8660 ha        1 MOL      0.126276
    142 H63        11.8040    0.5710   -0.7320 ha        1 MOL      0.126276
    143 H64        13.2180    0.7040    1.0930 ho        1 MOL      0.390417
    144 N13         6.6000    0.4200   -1.0510 n         1 MOL     -0.276676
    145 C48         6.4260    1.8500   -1.1900 c3        1 MOL     -0.000951
    146 C49         5.1700    2.3430   -0.4440 c         1 MOL      0.366502
    147 O21         4.9270    3.5960   -0.4880 o         1 MOL     -0.520863
    148 C50         6.5360    2.2730   -2.6700 c3        1 MOL      0.072184
    149 C51         7.9980    2.0340   -3.1660 c3        1 MOL     -0.324959
    150 C52         8.0470    2.3760   -4.7070 c         1 MOL      0.741723
    151 O22         7.5320    3.3610   -5.2320 o         1 MOL     -0.740388
    152 O23         8.7450    1.5930   -5.3590 o         1 MOL     -0.740388
    153 H65         6.6510   -0.1500   -1.8910 hn        1 MOL      0.250737
    154 H66         7.2470    2.3300   -0.6710 h1        1 MOL      0.072421
    155 H67         6.2590    3.3250   -2.7780 hc        1 MOL      0.028724
    156 H68         5.8510    1.6420   -3.2470 hc        1 MOL      0.028724
    157 H69         8.3520    1.0330   -2.9240 hc        1 MOL      0.049763
    158 H70         8.6490    2.7550   -2.6730 hc        1 MOL      0.049763
    159 N14         4.3000    1.5180    0.2260 n         1 MOL     -0.051536
    160 C53         3.4170    1.9440    1.3080 c3        1 MOL     -0.028751
    161 C54         3.9200    1.5320    2.7430 c         1 MOL      0.413741
    162 O24         3.6500    2.2710    3.6780 o         1 MOL     -0.567343
    163 C55         2.0150    1.2940    1.1300 c3        1 MOL     -0.089743
    164 C56         1.3530    1.8650   -0.1880 c3        1 MOL     -0.133777
    165 C57         0.0460    0.9020   -0.4430 c         1 MOL      0.656377
    166 O25        -1.0600    1.4300   -0.2760 o         1 MOL     -0.606947
    167 O26         0.2090   -0.2350   -0.9310 o         1 MOL     -0.606947
    168 H71         4.4180    0.5170    0.1230 hn        1 MOL     -0.084364
    169 H72         3.3060    3.0370    1.3780 h1        1 MOL      0.104146
    170 H73         1.3250    1.5890    1.9190 hc        1 MOL      0.075652
    171 H74         2.2480    0.2440    0.9440 hc        1 MOL      0.075652
    172 H75         1.9530    1.8850   -1.1030 hc        1 MOL      0.042533
    173 H76         1.0780    2.8780    0.0830 hc        1 MOL      0.042533
    174 N15         4.7910    0.5820    2.8530 n         1 MOL      0.066140
    175 C58         5.4450    0.1930    4.1160 c3        1 MOL     -0.349895
    176 H77         4.7480    0.3290    4.9420 h1        1 MOL      0.111691
    177 H78         5.7450   -0.8530    4.0620 h1        1 MOL      0.111691
    178 H79         6.3260    0.8170    4.2770 h1        1 MOL      0.111691
    179 H80         5.2020    0.1090    2.0650 hn        1 MOL     -0.003245
    180 Ca1        -2.6930   -0.2790   -1.3410 Ca        1 MOL      1.721659
    181 O27        -1.9200   -0.0130   -3.8120 oh        1 MOL     -0.910468
    182 H81        -1.7350    0.9100   -4.0070 ho        1 MOL      0.429080
    183 H82        -2.3110   -0.3600   -4.6060 ho        1 MOL      0.429080
@<TRIPOS>BOND
     1    1    2 1   
     2    1    4 1   
     3    1    5 1   
     4    1    6 1   
     5    2    3 2   
     6    2    7 1   
     7    7    8 1   
     8    7   15 1   
     9    8    9 1   
    10    8   11 1   
    11    8   16 1   
    12    9   10 2   
    13    9   19 1   
    14   11   12 1   
    15   11   17 1   
    16   11   18 1   
    17   12   13 1   
    18   12   14 1   
    19   19   20 1   
    20   19   27 1   
    21   20   21 1   
    22   20   23 1   
    23   20   28 1   
    24   21   22 2   
    25   21   38 1   
    26   23   24 1   
    27   23   25 1   
    28   23   29 1   
    29   24   26 1   
    30   24   30 1   
    31   24   31 1   
    32   25   32 1   
    33   25   33 1   
    34   25   34 1   
    35   26   35 1   
    36   26   36 1   
    37   26   37 1   
    38   38   39 1   
    39   38   46 1   
    40   39   40 1   
    41   39   42 1   
    42   39   47 1   
    43   40   41 2   
    44   40   50 1   
    45   42   43 1   
    46   42   48 1   
    47   42   49 1   
    48   43   44 1   
    49   43   45 1   
    50   50   51 1   
    51   50   54 1   
    52   51   52 1   
    53   51   55 1   
    54   51   56 1   
    55   52   53 2   
    56   52   57 1   
    57   57   58 1   
    58   57   65 1   
    59   58   59 1   
    60   58   61 1   
    61   58   66 1   
    62   59   60 2   
    63   59   69 1   
    64   61   62 1   
    65   61   67 1   
    66   61   68 1   
    67   62   63 1   
    68   62   64 1   
    69   69   70 1   
    70   69   73 1   
    71   70   71 1   
    72   70   74 1   
    73   70   75 1   
    74   71   72 2   
    75   71   76 1   
    76   76   77 1   
    77   76   85 1   
    78   77   78 1   
    79   77   80 1   
    80   77   86 1   
    81   78   79 2   
    82   78   93 1   
    83   80   81 1   
    84   80   87 1   
    85   80   88 1   
    86   81   82 1   
    87   81   89 1   
    88   81   90 1   
    89   82   83 1   
    90   82   84 2   
    91   83   91 1   
    92   83   92 1   
    93   93   94 1   
    94   93  100 1   
    95   94   95 1   
    96   94   97 1   
    97   94  101 1   
    98   95   96 2   
    99   95  109 1   
   100   97   98 1   
   101   97   99 1   
   102   97  102 1   
   103   98  103 1   
   104   98  104 1   
   105   98  105 1   
   106   99  106 1   
   107   99  107 1   
   108   99  108 1   
   109  109  110 1   
   110  109  117 1   
   111  110  111 1   
   112  110  113 1   
   113  110  118 1   
   114  111  112 2   
   115  111  123 1   
   116  113  114 1   
   117  113  119 1   
   118  113  120 1   
   119  114  115 1   
   120  114  116 2   
   121  115  121 1   
   122  115  122 1   
   123  123  124 1   
   124  123  135 1   
   125  124  125 1   
   126  124  127 1   
   127  124  136 1   
   128  125  126 2   
   129  125  144 1   
   130  127  128 1   
   131  127  137 1   
   132  127  138 1   
   133  128  129 ar  
   134  128  130 ar  
   135  129  131 ar  
   136  129  139 1   
   137  130  132 ar  
   138  130  140 1   
   139  131  133 ar  
   140  131  141 1   
   141  132  133 ar  
   142  132  142 1   
   143  133  134 1   
   144  134  143 1   
   145  144  145 1   
   146  144  153 1   
   147  145  146 1   
   148  145  148 1   
   149  145  154 1   
   150  146  147 2   
   151  146  159 1   
   152  148  149 1   
   153  148  155 1   
   154  148  156 1   
   155  149  150 1   
   156  149  157 1   
   157  149  158 1   
   158  150  151 1   
   159  150  152 1   
   160  159  160 1   
   161  159  168 1   
   162  160  161 1   
   163  160  163 1   
   164  160  169 1   
   165  161  162 2   
   166  161  174 1   
   167  163  164 1   
   168  163  170 1   
   169  163  171 1   
   170  164  165 1   
   171  164  172 1   
   172  164  173 1   
   173  165  166 1   
   174  165  167 1   
   175  174  175 1   
   176  174  179 1   
   177  175  176 1   
   178  175  177 1   
   179  175  178 1   
   180  181  182 1   
   181  181  183 1   
@<TRIPOS>SUBSTRUCTURE
     1 MOL         1 TEMP              0 ****  ****    0 ROOT
