@<TRIPOS>MOLECULE
MOL
  183   181     1     0     0
SMALL
resp


@<TRIPOS>ATOM
      1 C1         -0.2720    1.4070    6.3540 c3        1 MOL     -0.292800
      2 C2         -0.7100    1.5860    4.8690 c         1 MOL      0.713012
      3 O1          0.0590    2.2070    4.1150 o         1 MOL     -0.542260
      4 H1         -0.8570    0.6080    6.8110 hc        1 MOL      0.065756
      5 H2          0.7870    1.1490    6.3930 hc        1 MOL      0.065756
      6 H3         -0.4420    2.3360    6.8980 hc        1 MOL      0.065756
      7 N1         -1.8570    1.0670    4.4270 n         1 MOL     -0.612310
      8 C3         -2.4820    1.2560    3.1050 c3        1 MOL      0.229602
      9 C4         -2.7630    2.7340    2.8450 c         1 MOL      0.521394
     10 O2         -3.3020    3.3650    3.7120 o         1 MOL     -0.596443
     11 C5         -3.7530    0.3440    3.0180 c3        1 MOL     -0.242617
     12 C6         -4.4040    0.1750    1.6390 c         1 MOL      0.867702
     13 O3         -5.4150   -0.5370    1.5320 o         1 MOL     -0.743233
     14 O4         -3.7750    0.6440    0.6410 o         1 MOL     -0.743233
     15 H4         -2.4740    0.7130    5.1490 hn        1 MOL      0.299619
     16 H5         -1.7190    0.7990    2.4730 h1        1 MOL      0.023883
     17 H6         -4.4570    0.7790    3.7280 hc        1 MOL      0.035984
     18 H7         -3.4970   -0.6490    3.4000 hc        1 MOL      0.035984
     19 N2         -2.5140    3.2160    1.6490 n         1 MOL     -0.081160
     20 C7         -2.8440    4.5510    1.2240 c3        1 MOL      0.048585
     21 C8         -3.9150    4.6390    0.1320 c         1 MOL      0.409148
     22 O5         -4.7890    5.4800    0.2150 o         1 MOL     -0.586549
     23 C9         -1.5860    5.3340    0.8650 c3        1 MOL      0.114867
     24 C10        -0.4660    5.3570    1.8480 c3        1 MOL      0.277406
     25 C11        -1.9290    6.7690    0.2590 c3        1 MOL     -0.323264
     26 C12        -0.8410    6.2290    3.0890 c3        1 MOL     -0.249347
     27 H8         -2.0700    2.6180    0.9680 hn        1 MOL     -0.109586
     28 H9         -3.2150    5.0520    2.1100 h1        1 MOL      0.026250
     29 H10        -1.1590    4.7250    0.0710 hc        1 MOL     -0.044351
     30 H11         0.4230    5.8730    1.4850 hc        1 MOL     -0.049072
     31 H12        -0.1610    4.3780    2.2170 hc        1 MOL     -0.049072
     32 H13        -2.8260    7.2070    0.6910 hc        1 MOL      0.074228
     33 H14        -1.0930    7.4630    0.3590 hc        1 MOL      0.074228
     34 H15        -2.1800    6.6990   -0.7960 hc        1 MOL      0.074228
     35 H16        -1.6410    5.7410    3.6570 hc        1 MOL      0.032268
     36 H17         0.0140    6.1310    3.7560 hc        1 MOL      0.032268
     37 H18        -1.0340    7.2620    2.7880 hc        1 MOL      0.032268
     38 N3         -3.9350    3.6580   -0.7310 n         1 MOL     -0.092157
     39 C13        -4.8920    3.6300   -1.8150 c3        1 MOL      0.026660
     40 C14        -6.2030    2.8120   -1.5170 c         1 MOL      0.376090
     41 O6         -7.0580    2.6890   -2.3640 o         1 MOL     -0.528851
     42 C15        -4.2720    3.2280   -3.1970 c3        1 MOL     -0.264820
     43 C16        -3.2380    2.1110   -3.2940 c         1 MOL      0.789822
     44 O7         -3.3530    1.1590   -2.4730 o         1 MOL     -0.698429
     45 O8         -2.2810    2.1910   -4.0790 o         1 MOL     -0.698429
     46 H19        -3.3540    2.8420   -0.6300 hn        1 MOL      0.152976
     47 H20        -5.1580    4.6730   -1.9970 h1        1 MOL      0.085208
     48 H21        -3.7170    4.1230   -3.4600 hc        1 MOL      0.051362
     49 H22        -5.1060    3.0610   -3.8760 hc        1 MOL      0.051362
     50 N4         -6.2960    2.1580   -0.3770 n         1 MOL     -0.134956
     51 C17        -7.5800    1.6170    0.1220 c3        1 MOL     -0.269323
     52 C18        -8.0900    0.3050   -0.4620 c         1 MOL      0.612162
     53 O9         -9.2060   -0.1130   -0.2710 o         1 MOL     -0.609493
     54 H23        -5.4900    2.1050    0.2360 hn        1 MOL      0.154462
     55 H24        -8.3750    2.3630    0.0950 h1        1 MOL      0.108325
     56 H25        -7.3850    1.4000    1.1690 h1        1 MOL      0.108325
     57 N5         -7.1650   -0.3840   -1.1940 n         1 MOL     -0.306090
     58 C19        -7.3440   -1.6940   -1.8690 c3        1 MOL     -0.045468
     59 C20        -7.2280   -2.8870   -0.8450 c         1 MOL      0.465562
     60 O10        -7.5850   -3.9700   -1.2430 o         1 MOL     -0.582598
     61 C21        -6.3120   -1.7860   -3.0570 c3        1 MOL     -0.053735
     62 C22        -4.8100   -1.7340   -2.6200 c         1 MOL      0.656497
     63 O11        -3.8870   -1.5570   -3.4190 o         1 MOL     -0.688130
     64 O12        -4.5450   -1.9100   -1.3770 o         1 MOL     -0.688130
     65 H26        -6.2090   -0.1300   -0.9960 hn        1 MOL      0.198780
     66 H27        -8.3570   -1.7110   -2.2920 h1        1 MOL      0.089589
     67 H28        -6.5230   -1.0510   -3.8350 hc        1 MOL      0.020184
     68 H29        -6.5760   -2.7030   -3.5760 hc        1 MOL      0.020184
     69 N6         -6.8390   -2.6540    0.3740 n         1 MOL     -0.158637
     70 C23        -6.7960   -3.6230    1.4900 c3        1 MOL     -0.272019
     71 C24        -5.5310   -4.4310    1.4310 c         1 MOL      0.571161
     72 O13        -5.5150   -5.5810    1.9410 o         1 MOL     -0.599118
     73 H30        -6.4710   -1.7490    0.6220 hn        1 MOL      0.257853
     74 H31        -7.6140   -4.3290    1.3160 h1        1 MOL      0.108818
     75 H32        -6.9640   -3.0580    2.4030 h1        1 MOL      0.108818
     76 N7         -4.4200   -3.8900    0.8930 n         1 MOL     -0.069551
     77 C25        -3.1190   -4.5060    1.0080 c3        1 MOL     -0.151153
     78 C26        -2.0250   -3.4960    1.2770 c         1 MOL      0.535001
     79 O14        -2.2660   -2.3180    1.0920 o         1 MOL     -0.604265
     80 C27        -2.8150   -5.4410   -0.2300 c3        1 MOL     -0.075526
     81 C28        -2.8850   -5.0180   -1.7410 c3        1 MOL     -0.145537
     82 C29        -1.8540   -3.9590   -2.1640 c         1 MOL      0.666709
     83 N8         -1.3840   -4.0700   -3.3890 n         1 MOL     -0.771999
     84 O15        -1.4900   -3.0040   -1.4800 o         1 MOL     -0.584204
     85 H33        -4.4690   -2.9850    0.4460 hn        1 MOL      0.126239
     86 H34        -3.1430   -5.0990    1.9180 h1        1 MOL      0.058615
     87 H35        -3.4960   -6.2950   -0.1190 hc        1 MOL      0.036045
     88 H36        -1.8210   -5.8590   -0.1160 hc        1 MOL      0.036045
     89 H37        -3.8380   -4.5480   -1.9740 hc        1 MOL      0.057553
     90 H38        -2.6440   -5.8960   -2.3380 hc        1 MOL      0.057553
     91 H39        -1.4870   -4.9390   -3.8960 hn        1 MOL      0.360888
     92 H40        -0.9270   -3.2640   -3.7850 hn        1 MOL      0.360888
     93 N9         -0.8110   -3.8560    1.7540 n         1 MOL     -0.224623
     94 C30         0.3760   -3.0250    1.8350 c3        1 MOL      0.063338
     95 C31         1.4380   -3.4040    0.7910 c         1 MOL      0.354436
     96 O16         1.9280   -4.4970    0.8840 o         1 MOL     -0.575121
     97 C32         0.9200   -3.0350    3.2660 c3        1 MOL      0.236340
     98 C33         1.9460   -1.8900    3.6120 c3        1 MOL     -0.291966
     99 C34        -0.2320   -2.7530    4.2900 c3        1 MOL     -0.291966
    100 H41        -0.6230   -4.8410    1.9150 hn        1 MOL      0.215785
    101 H42         0.1970   -1.9610    1.6890 h1        1 MOL      0.099235
    102 H43         1.2790   -4.0300    3.5010 hc        1 MOL     -0.028387
    103 H44         2.8890   -1.9580    3.0720 hc        1 MOL      0.054427
    104 H45         1.5410   -0.8860    3.5030 hc        1 MOL      0.054427
    105 H46         2.2340   -2.0730    4.6480 hc        1 MOL      0.054427
    106 H47        -0.8730   -1.9150    4.0270 hc        1 MOL      0.054427
    107 H48        -0.8310   -3.6540    4.1460 hc        1 MOL      0.054427
    108 H49         0.0530   -2.6480    5.3330 hc        1 MOL      0.054427
    109 N10         1.8290   -2.5520   -0.1640 n         1 MOL     -0.104909
    110 C35         3.0110   -2.8430   -1.0760 c3        1 MOL      0.149853
    111 C36         4.3170   -2.2010   -0.3630 c         1 MOL      0.375497
    112 O17         4.1720   -1.6240    0.7790 o         1 MOL     -0.369097
    113 C37         2.6240   -2.4470   -2.5590 c3        1 MOL     -0.303439
    114 C38         3.1120   -0.9910   -2.7150 c         1 MOL      0.719144
    115 N11         2.3320   -0.0440   -2.2530 n         1 MOL     -0.803810
    116 O18         4.1700   -0.7000   -3.2050 o         1 MOL     -0.622294
    117 H50         1.4730   -1.6110   -0.0800 hn        1 MOL     -0.098024
    118 H51         3.2530   -3.9030   -1.0640 h1        1 MOL      0.062392
    119 H52         1.5650   -2.6180   -2.7560 hc        1 MOL      0.083500
    120 H53         3.1750   -3.0950   -3.2460 hc        1 MOL      0.083500
    121 H54         1.5180   -0.2500   -1.6960 hn        1 MOL      0.419050
    122 H55         2.5360    0.9080   -2.5280 hn        1 MOL      0.419050
    123 N12         5.4680   -2.2730   -1.0070 n         1 MOL     -0.536619
    124 C39         6.7560   -1.8390   -0.4820 c3        1 MOL      0.314323
    125 C40         6.9370   -0.3420   -0.5130 c         1 MOL      0.625769
    126 O19         7.3820    0.1810    0.5100 o         1 MOL     -0.536894
    127 C41         7.9230   -2.4900   -1.2060 c3        1 MOL     -0.113724
    128 C42         9.2580   -2.1450   -0.6620 ca        1 MOL     -0.101734
    129 C43         9.6890   -2.7020    0.5710 ca        1 MOL     -0.044069
    130 C44        10.0850   -1.1900   -1.3490 ca        1 MOL     -0.044069
    131 C45        10.9660   -2.2780    1.1360 ca        1 MOL     -0.398176
    132 C46        11.3900   -0.8210   -0.8520 ca        1 MOL     -0.398176
    133 C47        11.7740   -1.3590    0.4260 ca        1 MOL      0.478535
    134 O20        13.0380   -1.0950    0.9680 oh        1 MOL     -0.556256
    135 H56         5.4670   -2.7720   -1.8950 hn        1 MOL      0.277441
    136 H57         6.7550   -2.0990    0.5760 h1        1 MOL      0.026028
    137 H58         7.9690   -2.1910   -2.2570 hc        1 MOL      0.039612
    138 H59         7.8060   -3.5640   -1.1360 hc        1 MOL      0.039612
    139 H60         9.0130   -3.4170    1.0150 ha        1 MOL      0.120827
    140 H61         9.7290   -0.7560   -2.2760 ha        1 MOL      0.120827
    141 H62        11.3270   -2.6370    2.0920 ha        1 MOL      0.183872
    142 H63        11.9680   -0.0450   -1.3290 ha        1 MOL      0.183872
    143 H64        13.6340   -0.6550    0.3540 ho        1 MOL      0.368322
    144 N13         6.3710    0.2950   -1.5350 n         1 MOL     -0.631179
    145 C48         6.2830    1.8570   -1.4930 c3        1 MOL      0.073261
    146 C49         5.4500    2.3900   -0.3310 c         1 MOL      0.224311
    147 O21         5.8250    3.3250    0.3890 o         1 MOL     -0.484989
    148 C50         5.6080    2.3140   -2.7730 c3        1 MOL      0.072090
    149 C51         5.6340    3.8700   -2.9830 c3        1 MOL     -0.412306
    150 C52         4.6440    4.1620   -4.1040 c         1 MOL      0.703490
    151 O22         3.4120    4.4190   -3.8420 o         1 MOL     -0.727686
    152 O23         4.9800    4.0300   -5.3260 o         1 MOL     -0.727686
    153 H65         5.9840   -0.2460   -2.2970 hn        1 MOL      0.336587
    154 H66         7.2350    2.3850   -1.4350 h1        1 MOL      0.081843
    155 H67         4.5550    2.0880   -2.6050 hc        1 MOL      0.040259
    156 H68         5.9940    1.7770   -3.6420 hc        1 MOL      0.040259
    157 H69         6.6310    4.1510   -3.3180 hc        1 MOL      0.084202
    158 H70         5.4100    4.4640   -2.1000 hc        1 MOL      0.084202
    159 N14         4.4050    1.6440    0.0040 n         1 MOL      0.061885
    160 C53         3.5880    2.0100    1.1720 c3        1 MOL     -0.043355
    161 C54         4.1610    1.6480    2.5630 c         1 MOL      0.341434
    162 O24         3.8840    2.3010    3.6140 o         1 MOL     -0.527908
    163 C55         2.2850    1.2850    1.1180 c3        1 MOL      0.087846
    164 C56         1.3100    1.9870    0.1690 c3        1 MOL      0.025507
    165 C57         0.0980    1.0720   -0.1820 c         1 MOL      0.467824
    166 O25        -1.0580    1.5500   -0.3630 o         1 MOL     -0.522196
    167 O26         0.2370   -0.1210   -0.4070 o         1 MOL     -0.522196
    168 H71         3.9570    0.9910   -0.6070 hn        1 MOL      0.034933
    169 H72         3.3460    3.0680    1.2430 h1        1 MOL      0.086239
    170 H73         1.8040    1.3900    2.0970 hc        1 MOL      0.035897
    171 H74         2.5030    0.2280    0.9660 hc        1 MOL      0.035897
    172 H75         1.8490    2.1390   -0.7630 hc        1 MOL      0.002994
    173 H76         1.1480    3.0090    0.4940 hc        1 MOL      0.002994
    174 N15         5.0460    0.5770    2.6040 n         1 MOL     -0.001286
    175 C58         5.7760    0.0590    3.7620 c3        1 MOL     -0.223099
    176 H77         6.5920   -0.5790    3.4210 h1        1 MOL      0.077689
    177 H78         6.1840    0.8910    4.3370 h1        1 MOL      0.077689
    178 H79         5.0990   -0.5200    4.3900 h1        1 MOL      0.077689
    179 H80         5.1470    0.0350    1.7620 hn        1 MOL      0.054416
    180 Ca1        -2.3740   -0.5950   -1.0300 Ca        1 MOL      1.658312
    181 O27        -0.9320   -0.1690   -3.2030 oh        1 MOL     -0.880747
    182 H81        -0.8500   -0.7040   -3.9950 ho        1 MOL      0.409751
    183 H82        -1.0980    0.7170   -3.5350 ho        1 MOL      0.409751
@<TRIPOS>BOND
     1    1    2 1   
     2    1    4 1   
     3    1    5 1   
     4    1    6 1   
     5    2    3 2   
     6    2    7 1   
     7    7    8 1   
     8    7   15 1   
     9    8    9 1   
    10    8   11 1   
    11    8   16 1   
    12    9   10 2   
    13    9   19 1   
    14   11   12 1   
    15   11   17 1   
    16   11   18 1   
    17   12   13 1   
    18   12   14 1   
    19   19   20 1   
    20   19   27 1   
    21   20   21 1   
    22   20   23 1   
    23   20   28 1   
    24   21   22 2   
    25   21   38 1   
    26   23   24 1   
    27   23   25 1   
    28   23   29 1   
    29   24   26 1   
    30   24   30 1   
    31   24   31 1   
    32   25   32 1   
    33   25   33 1   
    34   25   34 1   
    35   26   35 1   
    36   26   36 1   
    37   26   37 1   
    38   38   39 1   
    39   38   46 1   
    40   39   40 1   
    41   39   42 1   
    42   39   47 1   
    43   40   41 2   
    44   40   50 1   
    45   42   43 1   
    46   42   48 1   
    47   42   49 1   
    48   43   44 1   
    49   43   45 1   
    50   50   51 1   
    51   50   54 1   
    52   51   52 1   
    53   51   55 1   
    54   51   56 1   
    55   52   53 2   
    56   52   57 1   
    57   57   58 1   
    58   57   65 1   
    59   58   59 1   
    60   58   61 1   
    61   58   66 1   
    62   59   60 2   
    63   59   69 1   
    64   61   62 1   
    65   61   67 1   
    66   61   68 1   
    67   62   63 1   
    68   62   64 1   
    69   69   70 1   
    70   69   73 1   
    71   70   71 1   
    72   70   74 1   
    73   70   75 1   
    74   71   72 2   
    75   71   76 1   
    76   76   77 1   
    77   76   85 1   
    78   77   78 1   
    79   77   80 1   
    80   77   86 1   
    81   78   79 2   
    82   78   93 1   
    83   80   81 1   
    84   80   87 1   
    85   80   88 1   
    86   81   82 1   
    87   81   89 1   
    88   81   90 1   
    89   82   83 1   
    90   82   84 2   
    91   83   91 1   
    92   83   92 1   
    93   93   94 1   
    94   93  100 1   
    95   94   95 1   
    96   94   97 1   
    97   94  101 1   
    98   95   96 2   
    99   95  109 1   
   100   97   98 1   
   101   97   99 1   
   102   97  102 1   
   103   98  103 1   
   104   98  104 1   
   105   98  105 1   
   106   99  106 1   
   107   99  107 1   
   108   99  108 1   
   109  109  110 1   
   110  109  117 1   
   111  110  111 1   
   112  110  113 1   
   113  110  118 1   
   114  111  112 2   
   115  111  123 1   
   116  113  114 1   
   117  113  119 1   
   118  113  120 1   
   119  114  115 1   
   120  114  116 2   
   121  115  121 1   
   122  115  122 1   
   123  123  124 1   
   124  123  135 1   
   125  124  125 1   
   126  124  127 1   
   127  124  136 1   
   128  125  126 2   
   129  125  144 1   
   130  127  128 1   
   131  127  137 1   
   132  127  138 1   
   133  128  129 ar  
   134  128  130 ar  
   135  129  131 ar  
   136  129  139 1   
   137  130  132 ar  
   138  130  140 1   
   139  131  133 ar  
   140  131  141 1   
   141  132  133 ar  
   142  132  142 1   
   143  133  134 1   
   144  134  143 1   
   145  144  145 1   
   146  144  153 1   
   147  145  146 1   
   148  145  148 1   
   149  145  154 1   
   150  146  147 2   
   151  146  159 1   
   152  148  149 1   
   153  148  155 1   
   154  148  156 1   
   155  149  150 1   
   156  149  157 1   
   157  149  158 1   
   158  150  151 1   
   159  150  152 1   
   160  159  160 1   
   161  159  168 1   
   162  160  161 1   
   163  160  163 1   
   164  160  169 1   
   165  161  162 2   
   166  161  174 1   
   167  163  164 1   
   168  163  170 1   
   169  163  171 1   
   170  164  165 1   
   171  164  172 1   
   172  164  173 1   
   173  165  166 1   
   174  165  167 1   
   175  174  175 1   
   176  174  179 1   
   177  175  176 1   
   178  175  177 1   
   179  175  178 1   
   180  181  182 1   
   181  181  183 1   
@<TRIPOS>SUBSTRUCTURE
     1 MOL         1 TEMP              0 ****  ****    0 ROOT
