@<TRIPOS>MOLECULE
MOL
  175   173     1     0     0
SMALL
resp


@<TRIPOS>ATOM
      1 C1          0.0340    4.6310    5.5360 c3        1 MOL     -0.365711
      2 C2         -0.4010    4.4480    4.0950 c         1 MOL      0.741985
      3 O1          0.3900    4.5270    3.1710 o         1 MOL     -0.547788
      4 H1          0.2420    5.6850    5.7210 hc        1 MOL      0.086100
      5 H2         -0.7610    4.2950    6.2020 hc        1 MOL      0.086100
      6 H3          0.9360    4.0470    5.7210 hc        1 MOL      0.086100
      7 N1         -1.7180    4.0790    3.9770 n         1 MOL     -0.689801
      8 C3         -2.2500    3.6650    2.6720 c3        1 MOL      0.280596
      9 C4         -2.1290    4.7890    1.5690 c         1 MOL      0.511486
     10 O2         -2.2610    5.9450    1.8690 o         1 MOL     -0.557717
     11 C5         -3.6590    3.1490    2.7620 c3        1 MOL     -0.202380
     12 C6         -4.3230    2.7210    1.4290 c         1 MOL      0.602817
     13 O3         -5.4090    3.2810    1.1400 o         1 MOL     -0.621929
     14 O4         -3.7400    1.8890    0.7160 o         1 MOL     -0.621929
     15 H4         -2.1670    3.6940    4.8010 hn        1 MOL      0.332930
     16 H5         -1.6170    2.8180    2.3850 h1        1 MOL     -0.007131
     17 H6         -4.3400    3.8770    3.1930 hc        1 MOL      0.015195
     18 H7         -3.5650    2.2620    3.3830 hc        1 MOL      0.015195
     19 N2         -2.0220    4.3450    0.3370 n         1 MOL     -0.292027
     20 C7         -1.8770    5.1810   -0.8990 c3        1 MOL      0.169141
     21 C8         -2.8610    4.8610   -2.0190 c         1 MOL      0.571398
     22 O5         -2.7970    5.4990   -3.0550 o         1 MOL     -0.573564
     23 C9         -0.4160    5.1460   -1.3300 c3        1 MOL     -0.189193
     24 H8         -1.9330    3.3480    0.2260 hn        1 MOL      0.176673
     25 H9         -2.1110    6.2030   -0.6020 h1        1 MOL      0.027120
     26 H10        -0.1610    4.1980   -1.7970 hc        1 MOL      0.043711
     27 H11        -0.2230    5.8330   -2.1530 hc        1 MOL      0.043711
     28 H12         0.3260    5.2070   -0.5230 hc        1 MOL      0.043711
     29 N3         -3.8720    3.9980   -1.8180 n         1 MOL     -0.511749
     30 C10        -4.8130    3.5370   -2.8870 c3        1 MOL      0.335306
     31 C11        -6.2050    2.9580   -2.4920 c         1 MOL      0.283197
     32 O6         -7.2020    3.1220   -3.1880 o         1 MOL     -0.551958
     33 C12        -4.1770    2.4230   -3.8140 c3        1 MOL     -0.302095
     34 C13        -3.2860    1.3130   -3.1620 c         1 MOL      0.760131
     35 O7         -3.7270    0.8660   -2.0530 o         1 MOL     -0.683585
     36 O8         -2.3210    0.7380   -3.7050 o         1 MOL     -0.683585
     37 H13        -3.8840    3.4960   -0.9360 hn        1 MOL      0.194875
     38 H14        -5.0730    4.3650   -3.5450 h1        1 MOL      0.026717
     39 H15        -3.5310    2.9790   -4.4950 hc        1 MOL      0.059083
     40 H16        -5.0220    1.9420   -4.3070 hc        1 MOL      0.059083
     41 N4         -6.2790    2.1200   -1.4210 n         1 MOL     -0.003979
     42 C14        -7.3950    1.3190   -1.0000 c3        1 MOL     -0.145408
     43 C15        -7.2500   -0.2540   -1.0450 c         1 MOL      0.445813
     44 O9         -8.1730   -0.9640   -0.6670 o         1 MOL     -0.575255
     45 H17        -5.3890    1.9830   -0.9600 hn        1 MOL      0.072490
     46 H18        -8.2080    1.6620   -1.6500 h1        1 MOL      0.090090
     47 H19        -7.7340    1.6020   -0.0080 h1        1 MOL      0.090090
     48 N5         -6.2550   -0.8660   -1.7880 n         1 MOL     -0.264896
     49 C16        -6.2610   -2.2740   -2.2920 c3        1 MOL      0.029880
     50 C17        -6.3640   -3.2990   -1.1320 c         1 MOL      0.554735
     51 O10        -6.7450   -4.4470   -1.3970 o         1 MOL     -0.591489
     52 C18        -5.0560   -2.5490   -3.1740 c3        1 MOL     -0.246193
     53 C19        -3.6690   -2.4090   -2.5320 c         1 MOL      0.685079
     54 N6         -2.5380   -2.6890   -3.2190 n         1 MOL     -0.673370
     55 O11        -3.5940   -2.1660   -1.3300 o         1 MOL     -0.639812
     56 H20        -5.4450   -0.3000   -1.9850 hn        1 MOL      0.171751
     57 H21        -7.1890   -2.4080   -2.8570 h1        1 MOL      0.080977
     58 H22        -5.0540   -1.8320   -3.9850 hc        1 MOL      0.069908
     59 H23        -5.0230   -3.5730   -3.5390 hc        1 MOL      0.069908
     60 H24        -2.5850   -2.8030   -4.2240 hn        1 MOL      0.338746
     61 H25        -1.6300   -2.6860   -2.7710 hn        1 MOL      0.338746
     62 N7         -6.1580   -2.9000    0.1230 n         1 MOL     -0.132162
     63 C20        -6.2440   -3.8180    1.2740 c3        1 MOL     -0.397358
     64 C21        -4.9470   -4.4200    1.9310 c         1 MOL      0.651603
     65 O12        -5.0360   -5.0030    2.9940 o         1 MOL     -0.613501
     66 H26        -5.8760   -1.9540    0.3500 hn        1 MOL      0.251310
     67 H27        -6.9380   -4.6410    1.1330 h1        1 MOL      0.134935
     68 H28        -6.6180   -3.1820    2.0770 h1        1 MOL      0.134935
     69 N8         -3.8420   -4.0650    1.3940 n         1 MOL     -0.316103
     70 C22        -2.4580   -4.5390    1.7060 c3        1 MOL     -0.080137
     71 C23        -1.4340   -3.3900    1.7920 c         1 MOL      0.562629
     72 O13        -1.5750   -2.4020    1.0650 o         1 MOL     -0.620252
     73 C24        -2.0650   -5.6500    0.7450 c3        1 MOL      0.595248
     74 C25        -2.8740   -6.9250    1.0640 c3        1 MOL     -0.546806
     75 O14        -2.3400   -5.3460   -0.5630 oh        1 MOL     -0.620146
     76 H29        -3.9250   -3.4540    0.5930 hn        1 MOL      0.180635
     77 H30        -2.4660   -4.9760    2.7050 h1        1 MOL      0.059353
     78 H31        -1.0050   -5.8260    0.9240 h1        1 MOL     -0.085247
     79 H32        -2.0740   -4.4550   -0.8120 ho        1 MOL      0.367057
     80 H33        -2.9760   -7.0140    2.1350 hc        1 MOL      0.137980
     81 H34        -3.8560   -6.7310    0.6320 hc        1 MOL      0.137980
     82 H35        -2.4370   -7.8080    0.5850 hc        1 MOL      0.137980
     83 N9         -0.3530   -3.5500    2.5240 n         1 MOL     -0.496165
     84 C26         0.7630   -2.6350    2.3880 c3        1 MOL      0.192548
     85 C27         1.5600   -2.9910    1.1470 c         1 MOL      0.538538
     86 O15         1.9200   -4.1140    0.8350 o         1 MOL     -0.587152
     87 C28         1.6640   -2.7340    3.5840 c3        1 MOL     -0.158260
     88 C29         1.2160   -1.6990    4.5980 c3        1 MOL      0.283547
     89 C30         3.2100   -2.4470    3.3800 c3        1 MOL     -0.047742
     90 C31         1.8840   -1.5720    6.0160 c3        1 MOL     -0.215930
     91 H36        -0.2230   -4.4120    3.0370 hn        1 MOL      0.279765
     92 H37         0.4540   -1.6050    2.1770 h1        1 MOL      0.000278
     93 H38         1.5150   -3.7150    4.0410 hc        1 MOL      0.043792
     94 H39         0.1600   -1.8610    4.8320 hc        1 MOL     -0.072591
     95 H40         1.2020   -0.7010    4.1790 hc        1 MOL     -0.072591
     96 H41         3.8210   -2.6770    4.2460 hc        1 MOL      0.007936
     97 H42         3.5690   -3.0910    2.5770 hc        1 MOL      0.007936
     98 H43         3.4030   -1.4070    3.1440 hc        1 MOL      0.007936
     99 H44         2.7110   -0.8590    5.9420 hc        1 MOL      0.042083
    100 H45         1.1840   -1.1140    6.7060 hc        1 MOL      0.042083
    101 H46         2.1090   -2.5540    6.4290 hc        1 MOL      0.042083
    102 N10         1.8200   -1.9580    0.3400 n         1 MOL     -0.208849
    103 C32         2.6870   -1.9730   -0.8730 c3        1 MOL      0.001025
    104 C33         4.1160   -1.5760   -0.6470 c         1 MOL      0.619855
    105 O16         4.4120   -1.0150    0.4070 o         1 MOL     -0.475211
    106 C34         1.9930   -1.1390   -2.0140 c3        1 MOL     -0.450951
    107 C35         0.5810   -1.6590   -2.2440 c         1 MOL      0.899520
    108 O17        -0.3830   -1.2190   -1.5900 o         1 MOL     -0.722195
    109 O18         0.3590   -2.4680   -3.1790 o         1 MOL     -0.722195
    110 H47         1.4940   -1.0540    0.6440 hn        1 MOL      0.151139
    111 H48         2.6900   -3.0130   -1.2130 h1        1 MOL      0.070546
    112 H49         2.6140   -1.2940   -2.8930 hc        1 MOL      0.105227
    113 H50         2.0330   -0.0730   -1.7980 hc        1 MOL      0.105227
    114 N11         5.0210   -1.8210   -1.6160 n         1 MOL     -0.711341
    115 C36         6.4250   -1.5980   -1.4200 c3        1 MOL      0.304234
    116 C37         6.8700   -0.1430   -1.0210 c         1 MOL      0.421399
    117 O19         7.5120   -0.0660    0.0110 o         1 MOL     -0.462982
    118 C38         7.2530   -2.2240   -2.5950 c3        1 MOL     -0.055533
    119 C39         8.7100   -1.9910   -2.4480 ca        1 MOL      0.060780
    120 C40         9.3220   -2.2810   -1.2310 ca        1 MOL     -0.162253
    121 C41         9.4430   -1.2840   -3.4100 ca        1 MOL     -0.162253
    122 C42        10.7490   -2.0060   -1.0610 ca        1 MOL     -0.122764
    123 C43        10.8060   -0.9330   -3.1870 ca        1 MOL     -0.122764
    124 C44        11.4920   -1.3640   -2.0740 ca        1 MOL     -0.104966
    125 H51         4.6980   -2.1900   -2.5030 hn        1 MOL      0.349556
    126 H52         6.5790   -2.2600   -0.5630 h1        1 MOL      0.056889
    127 H53         6.9200   -1.7030   -3.4940 hc        1 MOL      0.022634
    128 H54         7.0750   -3.2790   -2.7960 hc        1 MOL      0.022634
    129 H55         8.8440   -2.8350   -0.4510 ha        1 MOL      0.108214
    130 H56         8.9920   -0.8820   -4.3110 ha        1 MOL      0.108214
    131 H57        11.1770   -2.2410   -0.0980 ha        1 MOL      0.115526
    132 H58        11.2280   -0.1750   -3.8280 ha        1 MOL      0.115526
    133 H59        12.5410   -1.1650   -1.9340 ha        1 MOL      0.101637
    134 N12         6.4330    0.9160   -1.7800 n         1 MOL     -0.196282
    135 C45         6.6420    2.2600   -1.3660 c3        1 MOL      0.103627
    136 C46         5.9180    2.6300   -0.0750 c         1 MOL      0.272808
    137 O20         6.5250    3.3030    0.8070 o         1 MOL     -0.526305
    138 C47         6.1170    3.1270   -2.4970 c3        1 MOL     -0.208436
    139 C48         5.0740    2.2330   -3.1480 c3        1 MOL      0.019787
    140 C49         5.7490    0.8680   -3.0620 c3        1 MOL      0.065456
    141 H60         7.7170    2.4370   -1.2560 h1        1 MOL      0.054271
    142 H61         5.5820    3.9600   -2.0370 hc        1 MOL      0.076911
    143 H62         6.8950    3.4190   -3.2110 hc        1 MOL      0.076911
    144 H63         4.1290    2.1780   -2.6050 hc        1 MOL      0.023909
    145 H64         4.8800    2.4990   -4.1880 hc        1 MOL      0.023909
    146 H65         4.9100    0.1830   -3.1310 h1        1 MOL      0.004100
    147 H66         6.4350    0.7400   -3.8930 h1        1 MOL      0.004100
    148 N13         4.8070    2.0580    0.2390 n         1 MOL     -0.041543
    149 C50         4.0440    2.1720    1.4950 c3        1 MOL     -0.274203
    150 C51         4.8790    1.5890    2.6750 c         1 MOL      0.488945
    151 O21         4.8900    2.1910    3.7530 o         1 MOL     -0.537731
    152 C52         2.6150    1.5940    1.4250 c3        1 MOL     -0.115108
    153 C53         1.7360    2.1980    0.3730 c3        1 MOL      0.097504
    154 C54         0.3610    1.5290    0.3010 c         1 MOL      0.542312
    155 O22         0.1350    0.5770    1.1390 o         1 MOL     -0.697148
    156 O23        -0.4790    1.7860   -0.5300 o         1 MOL     -0.697148
    157 H67         4.3880    1.5020   -0.4960 hn        1 MOL      0.223780
    158 H68         3.8630    3.2260    1.7210 h1        1 MOL      0.155993
    159 H69         2.1230    1.9180    2.3390 hc        1 MOL      0.096467
    160 H70         2.6740    0.5010    1.3380 hc        1 MOL      0.096467
    161 H71         2.2600    2.1850   -0.5770 hc        1 MOL      0.004206
    162 H72         1.5820    3.2530    0.6080 hc        1 MOL      0.004206
    163 N14         5.7700    0.5310    2.4700 n         1 MOL     -0.030201
    164 C55         6.6790   -0.0110    3.4770 c3        1 MOL     -0.182480
    165 H73         6.5820    0.5610    4.3990 h1        1 MOL      0.068223
    166 H74         6.4270   -1.0540    3.6700 h1        1 MOL      0.068223
    167 H75         7.7050    0.0540    3.1140 h1        1 MOL      0.068223
    168 H76         5.7920    0.0510    1.5790 hn        1 MOL      0.065566
    169 Ca1        -2.2660   -0.0970   -0.1860 Ca        1 MOL      1.733262
    170 O24        -2.2150    0.0060    2.4760 oh        1 MOL     -0.792762
    171 H77        -1.2690    0.1050    2.5490 ho        1 MOL      0.392840
    172 H78        -2.5520    0.3380    3.3080 ho        1 MOL      0.392840
    173 O25        -5.1980   -0.3580    1.3050 oh        1 MOL     -0.792762
    174 H79        -4.9620    0.5670    1.2090 ho        1 MOL      0.392840
    175 H80        -5.6790   -0.3990    2.1300 ho        1 MOL      0.392840
@<TRIPOS>BOND
     1    1    2 1   
     2    1    4 1   
     3    1    5 1   
     4    1    6 1   
     5    2    3 2   
     6    2    7 1   
     7    7    8 1   
     8    7   15 1   
     9    8    9 1   
    10    8   11 1   
    11    8   16 1   
    12    9   10 2   
    13    9   19 1   
    14   11   12 1   
    15   11   17 1   
    16   11   18 1   
    17   12   13 1   
    18   12   14 1   
    19   19   20 1   
    20   19   24 1   
    21   20   21 1   
    22   20   23 1   
    23   20   25 1   
    24   21   22 2   
    25   21   29 1   
    26   23   26 1   
    27   23   27 1   
    28   23   28 1   
    29   29   30 1   
    30   29   37 1   
    31   30   31 1   
    32   30   33 1   
    33   30   38 1   
    34   31   32 2   
    35   31   41 1   
    36   33   34 1   
    37   33   39 1   
    38   33   40 1   
    39   34   35 1   
    40   34   36 1   
    41   41   42 1   
    42   41   45 1   
    43   42   43 1   
    44   42   46 1   
    45   42   47 1   
    46   43   44 2   
    47   43   48 1   
    48   48   49 1   
    49   48   56 1   
    50   49   50 1   
    51   49   52 1   
    52   49   57 1   
    53   50   51 2   
    54   50   62 1   
    55   52   53 1   
    56   52   58 1   
    57   52   59 1   
    58   53   54 1   
    59   53   55 2   
    60   54   60 1   
    61   54   61 1   
    62   62   63 1   
    63   62   66 1   
    64   63   64 1   
    65   63   67 1   
    66   63   68 1   
    67   64   65 2   
    68   64   69 1   
    69   69   70 1   
    70   69   76 1   
    71   70   71 1   
    72   70   73 1   
    73   70   77 1   
    74   71   72 2   
    75   71   83 1   
    76   73   74 1   
    77   73   75 1   
    78   73   78 1   
    79   74   80 1   
    80   74   81 1   
    81   74   82 1   
    82   75   79 1   
    83   83   84 1   
    84   83   91 1   
    85   84   85 1   
    86   84   87 1   
    87   84   92 1   
    88   85   86 2   
    89   85  102 1   
    90   87   88 1   
    91   87   89 1   
    92   87   93 1   
    93   88   90 1   
    94   88   94 1   
    95   88   95 1   
    96   89   96 1   
    97   89   97 1   
    98   89   98 1   
    99   90   99 1   
   100   90  100 1   
   101   90  101 1   
   102  102  103 1   
   103  102  110 1   
   104  103  104 1   
   105  103  106 1   
   106  103  111 1   
   107  104  105 2   
   108  104  114 1   
   109  106  107 1   
   110  106  112 1   
   111  106  113 1   
   112  107  108 1   
   113  107  109 1   
   114  114  115 1   
   115  114  125 1   
   116  115  116 1   
   117  115  118 1   
   118  115  126 1   
   119  116  117 2   
   120  116  134 1   
   121  118  119 1   
   122  118  127 1   
   123  118  128 1   
   124  119  120 ar  
   125  119  121 ar  
   126  120  122 ar  
   127  120  129 1   
   128  121  123 ar  
   129  121  130 1   
   130  122  124 ar  
   131  122  131 1   
   132  123  124 ar  
   133  123  132 1   
   134  124  133 1   
   135  134  135 1   
   136  134  140 1   
   137  135  136 1   
   138  135  138 1   
   139  135  141 1   
   140  136  137 2   
   141  136  148 1   
   142  138  139 1   
   143  138  142 1   
   144  138  143 1   
   145  139  140 1   
   146  139  144 1   
   147  139  145 1   
   148  140  146 1   
   149  140  147 1   
   150  148  149 1   
   151  148  157 1   
   152  149  150 1   
   153  149  152 1   
   154  149  158 1   
   155  150  151 2   
   156  150  163 1   
   157  152  153 1   
   158  152  159 1   
   159  152  160 1   
   160  153  154 1   
   161  153  161 1   
   162  153  162 1   
   163  154  155 1   
   164  154  156 1   
   165  163  164 1   
   166  163  168 1   
   167  164  165 1   
   168  164  166 1   
   169  164  167 1   
   170  170  171 1   
   171  170  172 1   
   172  173  174 1   
   173  173  175 1   
@<TRIPOS>SUBSTRUCTURE
     1 MOL         1 TEMP              0 ****  ****    0 ROOT
