@<TRIPOS>MOLECULE
MOL
  189   185     1     0     0
SMALL
resp


@<TRIPOS>ATOM
      1 C1          0.4160   -3.8030    5.7580 c3        1 MOL     -0.433176
      2 C2          1.2300   -3.2980    4.6300 c         1 MOL      0.772569
      3 O1          1.3680   -2.0640    4.4520 o         1 MOL     -0.630786
      4 H1         -0.0380   -4.7550    5.4800 hc        1 MOL      0.111066
      5 H2          1.0530   -3.9460    6.6310 hc        1 MOL      0.111066
      6 H3         -0.3680   -3.0820    5.9940 hc        1 MOL      0.111066
      7 N1          1.8590   -4.1760    3.8550 n         1 MOL     -0.588957
      8 C3          2.6070   -3.7490    2.6200 c3        1 MOL      0.297573
      9 C4          2.5890   -4.9410    1.5990 c         1 MOL      0.404946
     10 O2          2.9410   -6.0920    1.9490 o         1 MOL     -0.553177
     11 C5          4.0680   -3.3840    2.9710 c3        1 MOL     -0.437041
     12 C6          4.8370   -2.7520    1.8440 c         1 MOL      0.864674
     13 O3          6.0250   -2.4690    2.0100 o         1 MOL     -0.720080
     14 O4          4.3060   -2.2880    0.8240 o         1 MOL     -0.720080
     15 H4          1.7240   -5.1460    4.0980 hn        1 MOL      0.295957
     16 H5          2.1670   -2.8440    2.1930 h1        1 MOL      0.008964
     17 H6          4.5720   -4.3010    3.3020 hc        1 MOL      0.102707
     18 H7          4.0240   -2.5660    3.6890 hc        1 MOL      0.102707
     19 N2          2.3750   -4.5930    0.3340 n         1 MOL     -0.262103
     20 C7          2.4820   -5.4830   -0.8180 c3        1 MOL     -0.062947
     21 C8          3.4370   -5.0230   -1.9700 c         1 MOL      0.497919
     22 O5          3.5210   -5.6710   -3.0420 o         1 MOL     -0.572977
     23 C9          1.0260   -5.8770   -1.2200 c3        1 MOL      0.022763
     24 C10         1.0540   -7.2270   -2.0890 c3        1 MOL      0.106214
     25 C11         0.3350   -4.7620   -1.9510 c3        1 MOL     -0.136218
     26 C12        -0.3360   -7.8090   -2.5130 c3        1 MOL     -0.369024
     27 H8          2.1740   -3.6060    0.2450 hn        1 MOL      0.186951
     28 H9          2.9450   -6.3970   -0.4610 h1        1 MOL      0.067240
     29 H10         0.4200   -6.0730   -0.3390 hc        1 MOL      0.030252
     30 H11         1.5920   -8.0530   -1.6260 hc        1 MOL      0.007379
     31 H12         1.5270   -7.0550   -3.0580 hc        1 MOL      0.007379
     32 H13         0.3920   -3.8010   -1.4350 hc        1 MOL      0.050364
     33 H14         0.6900   -4.6520   -2.9720 hc        1 MOL      0.050364
     34 H15        -0.6600   -5.1420   -2.1750 hc        1 MOL      0.050364
     35 H16        -1.1380   -7.6000   -1.8180 hc        1 MOL      0.081635
     36 H17        -0.5430   -7.4260   -3.5140 hc        1 MOL      0.081635
     37 H18        -0.1800   -8.8800   -2.6590 hc        1 MOL      0.081635
     38 N3          4.1320   -3.8430   -1.8270 n         1 MOL     -0.356199
     39 C13         4.8720   -3.3220   -2.9050 c3        1 MOL     -0.076044
     40 C14         6.0360   -2.3990   -2.5460 c         1 MOL      0.318455
     41 O6          6.7530   -2.0750   -3.5170 o         1 MOL     -0.523977
     42 C15         3.9280   -2.4340   -3.7560 c3        1 MOL     -0.020171
     43 C16         3.2940   -1.3130   -2.9900 c         1 MOL      0.633934
     44 O7          3.6970   -1.0390   -1.8220 o         1 MOL     -0.685012
     45 O8          2.4100   -0.6230   -3.5320 o         1 MOL     -0.685012
     46 H19         4.1110   -3.3160   -0.9660 hn        1 MOL      0.310880
     47 H20         5.1370   -4.1270   -3.5920 h1        1 MOL      0.130065
     48 H21         3.1470   -3.0450   -4.2120 hc        1 MOL      0.030928
     49 H22         4.5110   -2.0880   -4.6040 hc        1 MOL      0.030928
     50 N4          6.3680   -2.1370   -1.2970 n         1 MOL     -0.098131
     51 C17         7.5560   -1.3880   -0.8590 c3        1 MOL     -0.208034
     52 C18         7.5270    0.0170   -1.5120 c         1 MOL      0.449632
     53 O9          8.6050    0.5130   -1.8390 o         1 MOL     -0.599920
     54 H23         5.6070   -2.3250   -0.6440 hn        1 MOL      0.063021
     55 H24         8.3860   -1.9770   -1.2300 h1        1 MOL      0.116632
     56 H25         7.6550   -1.3270    0.2270 h1        1 MOL      0.116632
     57 N5          6.3490    0.6180   -1.7500 n         1 MOL     -0.196554
     58 C19         6.2440    1.9290   -2.4860 c3        1 MOL     -0.088668
     59 C20         6.4700    3.1020   -1.5700 c         1 MOL      0.446104
     60 O10         6.4080    4.2390   -1.9840 o         1 MOL     -0.521475
     61 C21         4.8510    2.0560   -3.1790 c3        1 MOL     -0.328785
     62 C22         3.6810    2.3200   -2.2610 c         1 MOL      0.910815
     63 O11         3.6500    1.7600   -1.1750 o         1 MOL     -0.754241
     64 O12         2.7530    3.0080   -2.6720 o         1 MOL     -0.754241
     65 H26         5.4850    0.2060   -1.4190 hn        1 MOL      0.367473
     66 H27         7.0600    2.0500   -3.2070 h1        1 MOL      0.132045
     67 H28         4.5330    1.2150   -3.7960 hc        1 MOL      0.080865
     68 H29         4.9240    2.9610   -3.7960 hc        1 MOL      0.080865
     69 N6          6.6730    2.8930   -0.2660 n         1 MOL     -0.270826
     70 C23         6.8400    3.9710    0.7750 c3        1 MOL     -0.007332
     71 C24         5.6350    4.7830    1.2090 c         1 MOL      0.432638
     72 O13         5.7470    5.9390    1.6870 o         1 MOL     -0.582207
     73 H30         6.8010    1.9690    0.1190 hn        1 MOL      0.205278
     74 H31         7.6850    4.5620    0.4340 h1        1 MOL      0.051456
     75 H32         7.2380    3.5790    1.7120 h1        1 MOL      0.051456
     76 N7          4.4640    4.2890    0.8590 n         1 MOL     -0.187215
     77 C25         3.1580    4.8020    1.3060 c3        1 MOL     -0.021600
     78 C26         2.1870    3.6050    1.6360 c         1 MOL      0.385717
     79 O14         2.4680    2.4920    1.2920 o         1 MOL     -0.491313
     80 C27         2.5600    5.7330    0.2330 c3        1 MOL     -0.066474
     81 C28         3.2340    7.1040    0.2840 c3        1 MOL     -0.339206
     82 C29         2.4340    8.1070   -0.5260 c         1 MOL      0.601888
     83 N8          2.6580    8.0810   -1.8320 n         1 MOL     -0.706265
     84 O15         1.6120    8.9030   -0.0460 o         1 MOL     -0.575178
     85 H33         4.4900    3.3320    0.5220 hn        1 MOL      0.160634
     86 H34         3.2780    5.3620    2.2380 h1        1 MOL      0.066335
     87 H35         1.4820    5.7050    0.3810 hc        1 MOL      0.101684
     88 H36         2.6120    5.2420   -0.7370 hc        1 MOL      0.101684
     89 H37         4.2440    7.1380   -0.0920 hc        1 MOL      0.128456
     90 H38         3.2100    7.4070    1.3330 hc        1 MOL      0.128456
     91 H39         3.3860    7.4470   -2.1530 hn        1 MOL      0.336890
     92 H40         2.3510    8.8590   -2.3820 hn        1 MOL      0.336890
     93 N9          1.0080    3.8440    2.2080 n         1 MOL     -0.406799
     94 C30        -0.0470    2.7820    2.3200 c3        1 MOL      0.263916
     95 C31        -0.9950    2.9280    1.1610 c         1 MOL      0.449541
     96 O16        -1.2630    4.0880    0.7300 o         1 MOL     -0.607687
     97 C32        -0.8020    2.8610    3.6390 c3        1 MOL      0.144228
     98 C33        -1.6030    1.5300    3.9080 c3        1 MOL     -0.352537
     99 C34         0.0430    3.0860    4.8570 c3        1 MOL     -0.352537
    100 H41         0.7410    4.8180    2.3100 hn        1 MOL      0.253616
    101 H42         0.3360    1.7660    2.2710 h1        1 MOL      0.026281
    102 H43        -1.5160    3.6740    3.4850 hc        1 MOL     -0.020033
    103 H44        -2.2560    1.4640    3.0440 hc        1 MOL      0.083389
    104 H45        -0.8350    0.7540    3.9750 hc        1 MOL      0.083389
    105 H46        -2.1020    1.4690    4.8770 hc        1 MOL      0.083389
    106 H47        -0.5550    3.2210    5.7570 hc        1 MOL      0.083389
    107 H48         0.6430    2.2020    5.0760 hc        1 MOL      0.083389
    108 H49         0.7510    3.9020    4.7080 hc        1 MOL      0.083389
    109 N10        -1.4700    1.8310    0.5820 n         1 MOL      0.037610
    110 C35        -2.5020    1.8770   -0.3680 c3        1 MOL      0.114549
    111 C36        -3.8620    1.6570    0.1990 c         1 MOL      0.253709
    112 O17        -4.0940    1.0460    1.2600 o         1 MOL     -0.320461
    113 C37        -2.1730    0.8470   -1.4040 c3        1 MOL     -0.100306
    114 C38        -3.2070    0.7290   -2.5350 c         1 MOL      0.553114
    115 N11        -3.5230    1.7730   -3.2570 n         1 MOL     -0.696951
    116 O18        -3.7830   -0.3130   -2.7860 o         1 MOL     -0.510513
    117 H50        -1.0080    0.9710    0.8310 hn        1 MOL     -0.195487
    118 H51        -2.5230    2.8530   -0.8560 h1        1 MOL      0.031829
    119 H52        -2.1220   -0.1680   -1.0020 hc        1 MOL      0.074987
    120 H53        -1.2360    1.2130   -1.8070 hc        1 MOL      0.074987
    121 H54        -3.0720    2.6680   -3.2550 hn        1 MOL      0.340973
    122 H55        -4.1290    1.4660   -4.0040 hn        1 MOL      0.340973
    123 N12        -4.9060    2.0940   -0.5370 n         1 MOL     -0.372654
    124 C39        -6.3750    1.8720   -0.2470 c3        1 MOL      0.142937
    125 C40        -6.6490    0.3550    0.0670 c         1 MOL      0.557359
    126 O19        -7.4680    0.0470    0.9570 o         1 MOL     -0.563619
    127 C41        -7.1720    2.2100   -1.5380 c3        1 MOL     -0.087651
    128 C42        -8.6150    2.3120   -1.5480 ca        1 MOL      0.080748
    129 C43        -9.3690    2.8060   -0.4400 ca        1 MOL     -0.109582
    130 C44        -9.2870    2.0700   -2.7180 ca        1 MOL     -0.109582
    131 C45       -10.7550    3.0320   -0.5720 ca        1 MOL     -0.350147
    132 C46       -10.7040    2.2060   -2.8080 ca        1 MOL     -0.350147
    133 C47       -11.4060    2.6730   -1.6890 ca        1 MOL      0.462169
    134 O20       -12.7600    2.9820   -1.7010 oh        1 MOL     -0.573549
    135 H56        -4.6860    2.4540   -1.4610 hn        1 MOL      0.205144
    136 H57        -6.7160    2.5030    0.5760 h1        1 MOL      0.024425
    137 H58        -6.7660    1.4930   -2.2620 hc        1 MOL      0.021194
    138 H59        -6.9070    3.2030   -1.8830 hc        1 MOL      0.021194
    139 H60        -8.8930    3.0340    0.5000 ha        1 MOL      0.121251
    140 H61        -8.8300    1.7620   -3.6510 ha        1 MOL      0.121251
    141 H62       -11.2980    3.5440    0.2090 ha        1 MOL      0.156938
    142 H63       -11.2820    1.9260   -3.6740 ha        1 MOL      0.156938
    143 H64       -13.1250    2.8140   -2.5770 ho        1 MOL      0.364476
    144 N13        -5.9930   -0.6770   -0.5260 n         1 MOL     -0.163685
    145 C48        -6.1290   -2.1280   -0.2130 c3        1 MOL     -0.222969
    146 C49        -5.2480   -2.6080    0.9240 c         1 MOL      0.375242
    147 O21        -5.4490   -3.7440    1.4430 o         1 MOL     -0.498109
    148 C50        -5.8610   -2.9550   -1.4600 c3        1 MOL      0.055981
    149 C51        -6.5930   -2.6710   -2.7860 c3        1 MOL     -0.260845
    150 C52        -8.0760   -2.5640   -2.4990 c         1 MOL      0.623172
    151 O22        -8.7990   -1.5710   -2.8960 o         1 MOL     -0.690221
    152 O23        -8.6300   -3.4940   -1.8250 o         1 MOL     -0.690221
    153 H65        -5.4140   -0.4270   -1.3160 hn        1 MOL      0.190678
    154 H66        -7.1770   -2.2680    0.0270 h1        1 MOL      0.186026
    155 H67        -6.0880   -3.9830   -1.1960 hc        1 MOL      0.033103
    156 H68        -4.7860   -3.0090   -1.5970 hc        1 MOL      0.033103
    157 H69        -6.5470   -3.4820   -3.5100 hc        1 MOL      0.040119
    158 H70        -6.2280   -1.7810   -3.3120 hc        1 MOL      0.040119
    159 N14        -4.1390   -1.8910    1.2310 n         1 MOL     -0.174472
    160 C53        -3.4050   -2.2300    2.4270 c3        1 MOL     -0.063405
    161 C54        -4.1960   -1.6560    3.6080 c         1 MOL      0.445144
    162 O24        -4.1050   -2.3120    4.6510 o         1 MOL     -0.570462
    163 C55        -2.0050   -1.5580    2.2530 c3        1 MOL      0.099817
    164 C56        -0.9970   -2.3820    1.4320 c3        1 MOL     -0.068923
    165 C57         0.1190   -1.5810    0.8170 c         1 MOL      0.693641
    166 O25         1.0290   -2.1100    0.1870 o         1 MOL     -0.597134
    167 O26         0.1650   -0.3570    1.1260 o         1 MOL     -0.597134
    168 H71        -3.8830   -1.0160    0.7890 hn        1 MOL      0.102598
    169 H72        -3.2960   -3.2940    2.6250 h1        1 MOL      0.092184
    170 H73        -1.5570   -1.3300    3.2180 hc        1 MOL      0.027873
    171 H74        -2.1360   -0.5450    1.8620 hc        1 MOL      0.027873
    172 H75        -1.3970   -2.9110    0.5580 hc        1 MOL     -0.018511
    173 H76        -0.5870   -3.1460    2.0840 hc        1 MOL     -0.018511
    174 N15        -5.0550   -0.6140    3.4610 n         1 MOL     -0.084834
    175 C58        -5.7360   -0.0700    4.6600 c3        1 MOL     -0.182939
    176 H77        -5.0880    0.6590    5.1460 h1        1 MOL      0.074628
    177 H78        -6.6670    0.4130    4.3630 h1        1 MOL      0.074628
    178 H79        -5.9530   -0.8820    5.3550 h1        1 MOL      0.074628
    179 H80        -5.0990   -0.1140    2.5860 hn        1 MOL      0.076097
    180 Ca1         2.6820   -0.0120    0.3560 Ca        1 MOL      1.687294
    181 O27         2.7650    0.0650    3.0300 oh        1 MOL     -0.882512
    182 O28         1.1490    0.8960   -1.7450 oh        1 MOL     -0.882512
    183 H81         3.1320    0.7900    3.5350 ho        1 MOL      0.416009
    184 H82         1.3560    1.8110   -1.9140 ho        1 MOL      0.416009
    185 H83         2.3300   -0.4800    3.6720 ho        1 MOL      0.416009
    186 H84         1.5570    0.4180   -2.4670 ho        1 MOL      0.416009
    187 O29         5.1580    0.2330    1.0770 oh        1 MOL     -0.882512
    188 H85         5.6180    0.6330    1.8110 ho        1 MOL      0.416009
    189 H86         5.1050   -0.6900    1.3000 ho        1 MOL      0.416009
@<TRIPOS>BOND
     1    1    2 1   
     2    1    4 1   
     3    1    5 1   
     4    1    6 1   
     5    2    3 2   
     6    2    7 1   
     7    7    8 1   
     8    7   15 1   
     9    8    9 1   
    10    8   11 1   
    11    8   16 1   
    12    9   10 2   
    13    9   19 1   
    14   11   12 1   
    15   11   17 1   
    16   11   18 1   
    17   12   13 1   
    18   12   14 1   
    19   19   20 1   
    20   19   27 1   
    21   20   21 1   
    22   20   23 1   
    23   20   28 1   
    24   21   22 2   
    25   21   38 1   
    26   23   24 1   
    27   23   25 1   
    28   23   29 1   
    29   24   26 1   
    30   24   30 1   
    31   24   31 1   
    32   25   32 1   
    33   25   33 1   
    34   25   34 1   
    35   26   35 1   
    36   26   36 1   
    37   26   37 1   
    38   38   39 1   
    39   38   46 1   
    40   39   40 1   
    41   39   42 1   
    42   39   47 1   
    43   40   41 2   
    44   40   50 1   
    45   42   43 1   
    46   42   48 1   
    47   42   49 1   
    48   43   44 1   
    49   43   45 1   
    50   50   51 1   
    51   50   54 1   
    52   51   52 1   
    53   51   55 1   
    54   51   56 1   
    55   52   53 2   
    56   52   57 1   
    57   57   58 1   
    58   57   65 1   
    59   58   59 1   
    60   58   61 1   
    61   58   66 1   
    62   59   60 2   
    63   59   69 1   
    64   61   62 1   
    65   61   67 1   
    66   61   68 1   
    67   62   63 1   
    68   62   64 1   
    69   69   70 1   
    70   69   73 1   
    71   70   71 1   
    72   70   74 1   
    73   70   75 1   
    74   71   72 2   
    75   71   76 1   
    76   76   77 1   
    77   76   85 1   
    78   77   78 1   
    79   77   80 1   
    80   77   86 1   
    81   78   79 2   
    82   78   93 1   
    83   80   81 1   
    84   80   87 1   
    85   80   88 1   
    86   81   82 1   
    87   81   89 1   
    88   81   90 1   
    89   82   83 1   
    90   82   84 2   
    91   83   91 1   
    92   83   92 1   
    93   93   94 1   
    94   93  100 1   
    95   94   95 1   
    96   94   97 1   
    97   94  101 1   
    98   95   96 2   
    99   95  109 1   
   100   97   98 1   
   101   97   99 1   
   102   97  102 1   
   103   98  103 1   
   104   98  104 1   
   105   98  105 1   
   106   99  106 1   
   107   99  107 1   
   108   99  108 1   
   109  109  110 1   
   110  109  117 1   
   111  110  111 1   
   112  110  113 1   
   113  110  118 1   
   114  111  112 2   
   115  111  123 1   
   116  113  114 1   
   117  113  119 1   
   118  113  120 1   
   119  114  115 1   
   120  114  116 2   
   121  115  121 1   
   122  115  122 1   
   123  123  124 1   
   124  123  135 1   
   125  124  125 1   
   126  124  127 1   
   127  124  136 1   
   128  125  126 2   
   129  125  144 1   
   130  127  128 1   
   131  127  137 1   
   132  127  138 1   
   133  128  129 ar  
   134  128  130 ar  
   135  129  131 ar  
   136  129  139 1   
   137  130  132 ar  
   138  130  140 1   
   139  131  133 ar  
   140  131  141 1   
   141  132  133 ar  
   142  132  142 1   
   143  133  134 1   
   144  134  143 1   
   145  144  145 1   
   146  144  153 1   
   147  145  146 1   
   148  145  148 1   
   149  145  154 1   
   150  146  147 2   
   151  146  159 1   
   152  148  149 1   
   153  148  155 1   
   154  148  156 1   
   155  149  150 1   
   156  149  157 1   
   157  149  158 1   
   158  150  151 1   
   159  150  152 1   
   160  159  160 1   
   161  159  168 1   
   162  160  161 1   
   163  160  163 1   
   164  160  169 1   
   165  161  162 2   
   166  161  174 1   
   167  163  164 1   
   168  163  170 1   
   169  163  171 1   
   170  164  165 1   
   171  164  172 1   
   172  164  173 1   
   173  165  166 1   
   174  165  167 1   
   175  174  175 1   
   176  174  179 1   
   177  175  176 1   
   178  175  177 1   
   179  175  178 1   
   180  181  183 1   
   181  181  185 1   
   182  182  184 1   
   183  182  186 1   
   184  187  188 1   
   185  187  189 1   
@<TRIPOS>SUBSTRUCTURE
     1 MOL         1 TEMP              0 ****  ****    0 ROOT
