@<TRIPOS>MOLECULE
MOL
  176   174     1     0     0
SMALL
resp


@<TRIPOS>ATOM
      1 C1          2.4100    3.2730    6.2780 c3        1 MOL     -0.235598
      2 C2          2.0480    2.6520    4.9110 c         1 MOL      0.715601
      3 O1          2.8520    1.9350    4.2620 o         1 MOL     -0.605789
      4 H1          2.1670    2.5680    7.0720 hc        1 MOL      0.058219
      5 H2          3.4770    3.4980    6.3040 hc        1 MOL      0.058219
      6 H3          1.8420    4.1920    6.4210 hc        1 MOL      0.058219
      7 N1          0.8280    2.9050    4.4740 n         1 MOL     -0.590903
      8 C3          0.4520    2.6600    3.0540 c3        1 MOL      0.056606
      9 C4          0.8830    3.9330    2.2670 c         1 MOL      0.579923
     10 O2          0.7500    5.0740    2.7020 o         1 MOL     -0.541276
     11 C5         -1.0160    2.3620    2.9500 c3        1 MOL     -0.106956
     12 C6         -1.5100    1.8330    1.6340 c         1 MOL      0.887871
     13 O3         -1.2690    2.4260    0.5700 o         1 MOL     -0.838212
     14 O4         -1.9760    0.6830    1.5180 o         1 MOL     -0.838212
     15 H4          0.1530    3.4170    5.0270 hn        1 MOL      0.326636
     16 H5          1.0210    1.7810    2.7600 h1        1 MOL      0.110977
     17 H6         -1.4740    3.2520    3.3810 hc        1 MOL      0.028121
     18 H7         -1.2510    1.6250    3.7130 hc        1 MOL      0.028121
     19 N2          1.4950    3.6250    1.1380 n         1 MOL     -0.350885
     20 C7          2.0790    4.6870    0.2650 c3        1 MOL     -0.292069
     21 C8          1.0220    5.3830   -0.5090 c         1 MOL      0.597507
     22 O5          1.1510    6.5840   -0.7900 o         1 MOL     -0.596375
     23 C9          3.0330    3.8450   -0.6940 c3        1 MOL      0.059595
     24 C10         3.8600    4.7340   -1.6670 c3        1 MOL     -0.306740
     25 C11         5.1760    4.1380   -2.0800 c3        1 MOL      0.032925
     26 C12         5.7860    5.0630   -3.2240 c3        1 MOL      0.065314
     27 N3          7.2130    4.8220   -3.3890 n4        1 MOL     -0.386185
     28 H8          1.3660    2.6900    0.7780 hn        1 MOL      0.191278
     29 H9          2.6070    5.4360    0.8530 h1        1 MOL      0.187173
     30 H10         2.4670    3.0730   -1.2100 hc        1 MOL      0.108037
     31 H11         3.6960    3.3570    0.0200 hc        1 MOL      0.108037
     32 H12         4.2360    5.6000   -1.1150 hc        1 MOL      0.099779
     33 H13         3.1870    4.9720   -2.4840 hc        1 MOL      0.099779
     34 H14         5.0120    3.0910   -2.3610 hc        1 MOL      0.043058
     35 H15         5.7710    4.0380   -1.1780 hc        1 MOL      0.043058
     36 H16         5.5510    6.1010   -2.9680 hx        1 MOL      0.076824
     37 H17         5.2490    4.8760   -4.1530 hx        1 MOL      0.076824
     38 H18         7.8450    5.0670   -2.6400 hn        1 MOL      0.336211
     39 H19         7.3720    3.8710   -3.7080 hn        1 MOL      0.336211
     40 H20         7.4900    5.3650   -4.1920 hn        1 MOL      0.336211
     41 N4         -0.1780    4.8750   -0.7050 n         1 MOL     -0.314351
     42 C13        -1.2090    5.4290   -1.5940 c3        1 MOL      0.054015
     43 C14        -2.6360    5.5140   -0.8800 c         1 MOL      0.448506
     44 O6         -3.4670    6.3800   -1.2630 o         1 MOL     -0.544756
     45 C15        -1.2810    4.5770   -2.8960 c3        1 MOL     -0.357383
     46 C16        -1.3550    3.0570   -2.5300 c         1 MOL      0.774802
     47 O7         -2.3070    2.5310   -1.9070 o         1 MOL     -0.751177
     48 O8         -0.4420    2.3060   -2.9240 o         1 MOL     -0.751177
     49 H21        -0.3700    3.9240   -0.4120 hn        1 MOL      0.282298
     50 H22        -0.9430    6.4640   -1.8210 h1        1 MOL      0.101454
     51 H23        -0.4170    4.7470   -3.5470 hc        1 MOL      0.104727
     52 H24        -2.1910    4.9510   -3.3790 hc        1 MOL      0.104727
     53 N5         -2.8290    4.6580    0.1260 n         1 MOL     -0.190151
     54 C17        -4.0270    4.5470    0.9750 c3        1 MOL     -0.126309
     55 C18        -5.1830    3.7020    0.4630 c         1 MOL      0.603420
     56 O9         -6.2910    3.7330    1.0550 o         1 MOL     -0.606243
     57 H25        -2.1350    3.9620    0.3320 hn        1 MOL      0.095774
     58 H26        -4.4650    5.5420    1.0680 h1        1 MOL      0.090338
     59 H27        -3.7280    4.1810    1.9590 h1        1 MOL      0.090338
     60 N6         -4.9510    2.7650   -0.4790 n         1 MOL     -0.446310
     61 C19        -6.0890    2.0850   -1.1790 c3        1 MOL      0.073990
     62 C20        -6.7470    0.9190   -0.4040 c         1 MOL      0.417704
     63 O10        -7.4650    0.0760   -0.9980 o         1 MOL     -0.521281
     64 C21        -5.5340    1.6180   -2.5480 c3        1 MOL     -0.314644
     65 C22        -4.5240    0.4770   -2.4570 c         1 MOL      0.730895
     66 N7         -4.3580   -0.2120   -3.5790 n         1 MOL     -0.793619
     67 O11        -3.9700    0.1640   -1.4360 o         1 MOL     -0.582535
     68 H28        -4.0540    2.7750   -0.9470 hn        1 MOL      0.323615
     69 H29        -6.8790    2.8040   -1.3870 h1        1 MOL      0.112749
     70 H30        -5.1100    2.4550   -3.0950 hc        1 MOL      0.105267
     71 H31        -6.4140    1.2280   -3.0670 hc        1 MOL      0.105267
     72 H32        -4.6370    0.2540   -4.4370 hn        1 MOL      0.362946
     73 H33        -3.7220   -0.9940   -3.6400 hn        1 MOL      0.362946
     74 N8         -6.3310    0.7090    0.8670 n         1 MOL     -0.272495
     75 C23        -6.5920   -0.3740    1.7560 c3        1 MOL     -0.185462
     76 C24        -5.7310   -1.6050    1.6220 c         1 MOL      0.463083
     77 O12        -5.8620   -2.5140    2.4350 o         1 MOL     -0.537864
     78 H34        -5.6970    1.4210    1.2090 hn        1 MOL      0.286897
     79 H35        -7.6420   -0.6770    1.8230 h1        1 MOL      0.132045
     80 H36        -6.4220   -0.0680    2.7940 h1        1 MOL      0.132045
     81 N9         -4.7960   -1.7270    0.6410 n         1 MOL     -0.181539
     82 C25        -4.0070   -2.9370    0.3590 c3        1 MOL      0.148855
     83 C26        -2.5220   -2.5770    0.2670 c         1 MOL      0.560080
     84 O13        -1.9480   -2.1150   -0.7520 o         1 MOL     -0.614800
     85 C27        -4.4860   -3.6530   -0.9500 c3        1 MOL     -0.005347
     86 C28        -5.9140   -4.0640   -0.9110 ca        1 MOL      0.235569
     87 C29        -6.3380   -4.9380    0.0990 ca        1 MOL     -0.365723
     88 C30        -6.8210   -3.6840   -1.9730 ca        1 MOL     -0.365723
     89 C31        -7.7130   -5.2630    0.2360 ca        1 MOL     -0.081489
     90 C32        -8.1830   -4.0660   -1.8310 ca        1 MOL     -0.081489
     91 C33        -8.5810   -4.8660   -0.7420 ca        1 MOL      0.179675
     92 O14        -9.9150   -5.2990   -0.6430 oh        1 MOL     -0.472504
     93 H37        -4.5580   -0.9960   -0.0220 hn        1 MOL      0.152521
     94 H38        -4.1500   -3.6000    1.2120 h1        1 MOL      0.022636
     95 H39        -3.9690   -4.5940   -1.1500 hc        1 MOL      0.008950
     96 H40        -4.2610   -3.1310   -1.8790 hc        1 MOL      0.008950
     97 H41        -5.7160   -5.1930    0.9490 ha        1 MOL      0.178266
     98 H42        -6.5310   -3.0480   -2.7980 ha        1 MOL      0.178266
     99 H43        -8.0840   -5.9330    1.0060 ha        1 MOL      0.123997
    100 H44        -8.9230   -3.7570   -2.5600 ha        1 MOL      0.123997
    101 H45       -10.3950   -4.9090   -1.3820 ho        1 MOL      0.337712
    102 N10        -1.8970   -2.7810    1.3770 n         1 MOL     -0.640541
    103 C34        -0.4230   -2.7140    1.5190 c3        1 MOL      0.029684
    104 C35         0.3250   -3.8770    0.8720 c         1 MOL      0.547075
    105 O15        -0.1070   -5.0180    0.9180 o         1 MOL     -0.553040
    106 C36         0.0320   -2.6980    3.0080 c3        1 MOL      0.004535
    107 C37        -0.9230   -1.8980    3.9620 c3        1 MOL      0.113826
    108 C38         1.5170   -2.2000    3.2020 c3        1 MOL     -0.261851
    109 C39        -0.5040   -1.9900    5.4630 c3        1 MOL     -0.318378
    110 H46        -2.4210   -3.2490    2.1140 hn        1 MOL      0.352706
    111 H47        -0.1000   -1.7870    1.0220 h1        1 MOL      0.079986
    112 H48         0.0180   -3.7320    3.3520 hc        1 MOL      0.026886
    113 H49        -1.9970   -2.0320    3.9030 hc        1 MOL      0.021662
    114 H50        -0.7580   -0.8550    3.7170 hc        1 MOL      0.021662
    115 H51         1.9720   -2.4730    4.1480 hc        1 MOL      0.065823
    116 H52         2.2070   -2.6490    2.4770 hc        1 MOL      0.065823
    117 H53         1.5540   -1.1150    3.1100 hc        1 MOL      0.065823
    118 H54        -0.3900   -3.0190    5.8110 hc        1 MOL      0.079793
    119 H55         0.4710   -1.5120    5.5530 hc        1 MOL      0.079793
    120 H56        -1.1790   -1.4600    6.1380 hc        1 MOL      0.079793
    121 N11         1.4140   -3.6070    0.1730 n         1 MOL     -0.268283
    122 C40         2.2910   -4.5490   -0.6420 c3        1 MOL     -0.000305
    123 C41         3.7500   -4.3560   -0.2600 c         1 MOL      0.366857
    124 O16         4.0820   -3.4270    0.5060 o         1 MOL     -0.430108
    125 C42         2.1790   -4.3620   -2.2000 c3        1 MOL      0.064459
    126 O17         2.3030   -2.9850   -2.5180 oh        1 MOL     -0.510743
    127 H57         1.7130   -2.6480    0.1650 hn        1 MOL      0.357934
    128 H58         1.9300   -5.5330   -0.3500 h1        1 MOL      0.051413
    129 H59         1.1970   -4.7300   -2.4910 h1        1 MOL      0.048856
    130 H60         2.9700   -4.9870   -2.6350 h1        1 MOL      0.048856
    131 H61         1.7020   -2.5030   -1.9350 ho        1 MOL      0.264468
    132 N12         4.6190   -5.2690   -0.6960 n         1 MOL     -0.300546
    133 C43         6.0520   -5.3220   -0.3390 c3        1 MOL     -0.007257
    134 C44         6.8570   -4.0650   -0.7740 c         1 MOL      0.541736
    135 O18         7.6860   -3.5850    0.0060 o         1 MOL     -0.505236
    136 C45         6.5950   -6.5960   -0.9730 c3        1 MOL     -0.269486
    137 H62         4.3060   -5.9570   -1.3660 hn        1 MOL      0.248644
    138 H63         6.0640   -5.3600    0.7460 h1        1 MOL      0.116908
    139 H64         6.8340   -6.2780   -1.9930 hc        1 MOL      0.089257
    140 H65         7.5200   -6.9440   -0.5070 hc        1 MOL      0.089257
    141 H66         5.8400   -7.3870   -0.9290 hc        1 MOL      0.089257
    142 N13         6.5170   -3.4580   -1.9270 n         1 MOL     -0.433704
    143 C46         7.1390   -2.1960   -2.4320 c3        1 MOL      0.072535
    144 C47         7.0180   -1.0650   -1.4360 c         1 MOL      0.370128
    145 O19         7.8980   -0.2380   -1.3590 o         1 MOL     -0.548211
    146 C48         6.5540   -1.6380   -3.7490 c3        1 MOL     -0.394256
    147 H67         5.8510   -3.9130   -2.5360 hn        1 MOL      0.303562
    148 H68         8.2150   -2.3230   -2.5070 h1        1 MOL      0.095778
    149 H69         5.4640   -1.5680   -3.6590 hc        1 MOL      0.117084
    150 H70         7.0010   -0.7060   -4.0700 hc        1 MOL      0.117084
    151 H71         6.8700   -2.2920   -4.5550 hc        1 MOL      0.117084
    152 N14         5.9200   -1.0290   -0.7200 n         1 MOL     -0.025453
    153 C49         5.5940    0.0040    0.2280 c3        1 MOL     -0.105261
    154 C50         6.2420   -0.3100    1.6470 c         1 MOL      0.544355
    155 O20         6.5580    0.6390    2.3360 o         1 MOL     -0.555665
    156 C51         4.0940    0.0280    0.4180 c3        1 MOL      0.341434
    157 C52         3.2130    0.1300   -0.8280 c3        1 MOL     -0.184182
    158 C53         1.7180    0.0280   -0.4760 c         1 MOL      0.688027
    159 O21         1.0360   -0.9670   -0.9080 o         1 MOL     -0.670577
    160 O22         1.0860    0.8620    0.0950 o         1 MOL     -0.670577
    161 H72         5.2300   -1.7480   -0.8850 hn        1 MOL      0.154963
    162 H73         5.9760    0.9660   -0.1270 h1        1 MOL      0.028448
    163 H74         3.9040    0.8650    1.0750 hc        1 MOL     -0.086727
    164 H75         3.7390   -0.8940    0.8830 hc        1 MOL     -0.086727
    165 H76         3.5220   -0.7460   -1.4180 hc        1 MOL     -0.045460
    166 H77         3.5040    1.0920   -1.2650 hc        1 MOL     -0.045460
    167 N15         6.4710   -1.5430    2.0170 n         1 MOL     -0.184647
    168 C54         7.3440   -1.9590    3.0990 c3        1 MOL     -0.353808
    169 H78         8.3170   -1.4820    2.9840 h1        1 MOL      0.142473
    170 H79         6.9070   -1.6640    4.0540 h1        1 MOL      0.142473
    171 H80         7.4650   -3.0420    3.0740 h1        1 MOL      0.142473
    172 H81         6.1950   -2.1970    1.3020 hn        1 MOL      0.139467
    173 Ca1        -1.1690    0.3540   -1.0550 Ca        1 MOL      1.794284
    174 O23        -1.0490   -0.8580   -3.4190 oh        1 MOL     -0.936002
    175 H82        -1.4390   -1.6050   -3.8820 ho        1 MOL      0.447988
    176 H83        -0.2780   -0.6410   -3.9370 ho        1 MOL      0.447988
@<TRIPOS>BOND
     1    1    2 1   
     2    1    4 1   
     3    1    5 1   
     4    1    6 1   
     5    2    3 2   
     6    2    7 1   
     7    7    8 1   
     8    7   15 1   
     9    8    9 1   
    10    8   11 1   
    11    8   16 1   
    12    9   10 2   
    13    9   19 1   
    14   11   12 1   
    15   11   17 1   
    16   11   18 1   
    17   12   13 1   
    18   12   14 1   
    19   19   20 1   
    20   19   28 1   
    21   20   21 1   
    22   20   23 1   
    23   20   29 1   
    24   21   22 2   
    25   21   41 1   
    26   23   24 1   
    27   23   30 1   
    28   23   31 1   
    29   24   25 1   
    30   24   32 1   
    31   24   33 1   
    32   25   26 1   
    33   25   34 1   
    34   25   35 1   
    35   26   27 1   
    36   26   36 1   
    37   26   37 1   
    38   27   38 1   
    39   27   39 1   
    40   27   40 1   
    41   41   42 1   
    42   41   49 1   
    43   42   43 1   
    44   42   45 1   
    45   42   50 1   
    46   43   44 2   
    47   43   53 1   
    48   45   46 1   
    49   45   51 1   
    50   45   52 1   
    51   46   47 1   
    52   46   48 1   
    53   53   54 1   
    54   53   57 1   
    55   54   55 1   
    56   54   58 1   
    57   54   59 1   
    58   55   56 2   
    59   55   60 1   
    60   60   61 1   
    61   60   68 1   
    62   61   62 1   
    63   61   64 1   
    64   61   69 1   
    65   62   63 2   
    66   62   74 1   
    67   64   65 1   
    68   64   70 1   
    69   64   71 1   
    70   65   66 1   
    71   65   67 2   
    72   66   72 1   
    73   66   73 1   
    74   74   75 1   
    75   74   78 1   
    76   75   76 1   
    77   75   79 1   
    78   75   80 1   
    79   76   77 2   
    80   76   81 1   
    81   81   82 1   
    82   81   93 1   
    83   82   83 1   
    84   82   85 1   
    85   82   94 1   
    86   83   84 2   
    87   83  102 1   
    88   85   86 1   
    89   85   95 1   
    90   85   96 1   
    91   86   87 ar  
    92   86   88 ar  
    93   87   89 ar  
    94   87   97 1   
    95   88   90 ar  
    96   88   98 1   
    97   89   91 ar  
    98   89   99 1   
    99   90   91 ar  
   100   90  100 1   
   101   91   92 1   
   102   92  101 1   
   103  102  103 1   
   104  102  110 1   
   105  103  104 1   
   106  103  106 1   
   107  103  111 1   
   108  104  105 2   
   109  104  121 1   
   110  106  107 1   
   111  106  108 1   
   112  106  112 1   
   113  107  109 1   
   114  107  113 1   
   115  107  114 1   
   116  108  115 1   
   117  108  116 1   
   118  108  117 1   
   119  109  118 1   
   120  109  119 1   
   121  109  120 1   
   122  121  122 1   
   123  121  127 1   
   124  122  123 1   
   125  122  125 1   
   126  122  128 1   
   127  123  124 2   
   128  123  132 1   
   129  125  126 1   
   130  125  129 1   
   131  125  130 1   
   132  126  131 1   
   133  132  133 1   
   134  132  137 1   
   135  133  134 1   
   136  133  136 1   
   137  133  138 1   
   138  134  135 2   
   139  134  142 1   
   140  136  139 1   
   141  136  140 1   
   142  136  141 1   
   143  142  143 1   
   144  142  147 1   
   145  143  144 1   
   146  143  146 1   
   147  143  148 1   
   148  144  145 2   
   149  144  152 1   
   150  146  149 1   
   151  146  150 1   
   152  146  151 1   
   153  152  153 1   
   154  152  161 1   
   155  153  154 1   
   156  153  156 1   
   157  153  162 1   
   158  154  155 2   
   159  154  167 1   
   160  156  157 1   
   161  156  163 1   
   162  156  164 1   
   163  157  158 1   
   164  157  165 1   
   165  157  166 1   
   166  158  159 1   
   167  158  160 1   
   168  167  168 1   
   169  167  172 1   
   170  168  169 1   
   171  168  170 1   
   172  168  171 1   
   173  174  175 1   
   174  174  176 1   
@<TRIPOS>SUBSTRUCTURE
     1 MOL         1 TEMP              0 ****  ****    0 ROOT
