@<TRIPOS>MOLECULE
MOL
  175   173     1     0     0
SMALL
resp


@<TRIPOS>ATOM
      1 C1         -0.1050   -2.9800    5.8350 c3        1 MOL     -0.337134
      2 C2          0.4810   -3.1650    4.4220 c         1 MOL      0.776959
      3 O1         -0.2390   -3.5350    3.5570 o         1 MOL     -0.566030
      4 H1          0.1930   -3.8180    6.4650 hc        1 MOL      0.074693
      5 H2          0.2690   -2.0510    6.2650 hc        1 MOL      0.074693
      6 H3         -1.1930   -2.9400    5.7760 hc        1 MOL      0.074693
      7 N1          1.7650   -2.9530    4.2530 n         1 MOL     -0.755931
      8 C3          2.4250   -2.9130    3.0160 c3        1 MOL      0.252395
      9 C4          2.4130   -4.1990    2.1900 c         1 MOL      0.588919
     10 O2          2.9060   -5.2920    2.5640 o         1 MOL     -0.601052
     11 C5          3.8450   -2.4260    3.2280 c3        1 MOL     -0.292260
     12 C6          4.5940   -2.2280    1.8030 c         1 MOL      0.615797
     13 O3          3.8890   -1.8290    0.8310 o         1 MOL     -0.596471
     14 O4          5.8040   -2.5090    1.7950 o         1 MOL     -0.596471
     15 H4          2.3060   -2.8790    5.1040 hn        1 MOL      0.345058
     16 H5          1.8340   -2.2000    2.4380 h1        1 MOL      0.088660
     17 H6          4.3430   -3.1860    3.8230 hc        1 MOL      0.049334
     18 H7          3.7900   -1.5160    3.8220 hc        1 MOL      0.049334
     19 N2          1.9600   -4.1150    0.9330 n         1 MOL     -0.459626
     20 C7          1.8720   -5.2280   -0.0330 c3        1 MOL      0.233819
     21 C8          2.8290   -5.0780   -1.2130 c         1 MOL      0.481094
     22 O5          2.7700   -5.8240   -2.1460 o         1 MOL     -0.565771
     23 C9          0.3680   -5.3940   -0.4490 c3        1 MOL     -0.229725
     24 H8          1.6300   -3.2280    0.5900 hn        1 MOL      0.245184
     25 H9          2.1760   -6.1290    0.5050 h1        1 MOL      0.025194
     26 H10        -0.3120   -5.6000    0.3720 hc        1 MOL      0.055939
     27 H11         0.0720   -4.4860   -0.9760 hc        1 MOL      0.055939
     28 H12         0.2950   -6.2510   -1.1190 hc        1 MOL      0.055939
     29 N3          3.7040   -4.0730   -1.2680 n         1 MOL     -0.320963
     30 C10         4.5490   -3.8930   -2.4810 c3        1 MOL     -0.083922
     31 C11         5.8810   -3.1350   -2.2910 c         1 MOL      0.394145
     32 O6          6.6770   -3.1000   -3.2430 o         1 MOL     -0.549833
     33 C12         3.7670   -3.1650   -3.6470 c3        1 MOL      0.028854
     34 C13         3.1910   -1.7610   -3.3340 c         1 MOL      0.671407
     35 O7          2.6410   -1.1770   -4.3100 o         1 MOL     -0.694280
     36 O8          3.4370   -1.1710   -2.2390 o         1 MOL     -0.694280
     37 H13         3.7080   -3.3640   -0.5530 hn        1 MOL      0.187966
     38 H14         4.8000   -4.9110   -2.7770 h1        1 MOL      0.101805
     39 H15         2.9120   -3.7900   -3.9000 hc        1 MOL      0.007421
     40 H16         4.3090   -3.0850   -4.5900 hc        1 MOL      0.007421
     41 N4          6.1080   -2.4210   -1.1430 n         1 MOL     -0.045788
     42 C14         7.3430   -1.6520   -0.8830 c3        1 MOL     -0.378887
     43 C15         7.2030   -0.1560   -1.1680 c         1 MOL      0.705256
     44 O9          8.2350    0.4850   -1.0580 o         1 MOL     -0.667511
     45 H17         5.4850   -2.4410   -0.3510 hn        1 MOL      0.088343
     46 H18         8.0970   -1.9130   -1.6290 h1        1 MOL      0.142221
     47 H19         7.6440   -1.7930    0.1540 h1        1 MOL      0.142221
     48 N5          6.0930    0.3890   -1.5750 n         1 MOL     -0.344687
     49 C16         6.1350    1.7460   -2.1790 c3        1 MOL     -0.014110
     50 C17         6.1440    2.9890   -1.1350 c         1 MOL      0.433949
     51 O10         5.9530    4.0810   -1.5550 o         1 MOL     -0.469899
     52 C18         5.0310    1.7800   -3.2790 c3        1 MOL     -0.094570
     53 C19         3.5890    1.8200   -2.7450 c         1 MOL      0.598484
     54 N6          2.6400    1.9520   -3.6870 n         1 MOL     -0.773862
     55 O11         3.3960    1.8560   -1.5860 o         1 MOL     -0.518934
     56 H20         5.2850   -0.2070   -1.6490 hn        1 MOL      0.199986
     57 H21         7.0330    1.8460   -2.7930 h1        1 MOL      0.096935
     58 H22         5.1560    0.8850   -3.8870 hc        1 MOL      0.049227
     59 H23         5.2620    2.5780   -3.9810 hc        1 MOL      0.049227
     60 H24         2.8040    1.6050   -4.6200 hn        1 MOL      0.383686
     61 H25         1.6760    1.9910   -3.4020 hn        1 MOL      0.383686
     62 N7          6.3580    2.7500    0.1620 n         1 MOL     -0.288157
     63 C20         6.2400    3.7710    1.2140 c3        1 MOL     -0.108760
     64 C21         4.9230    4.4760    1.3250 c         1 MOL      0.513688
     65 O12         4.9620    5.6010    1.7880 o         1 MOL     -0.585034
     66 H26         6.4960    1.7940    0.4600 hn        1 MOL      0.248347
     67 H27         6.9790    4.5670    1.1030 h1        1 MOL      0.073339
     68 H28         6.3510    3.3190    2.2050 h1        1 MOL      0.073339
     69 N8          3.8660    3.9250    0.7830 n         1 MOL     -0.030573
     70 C22         2.4920    4.5450    0.9480 c3        1 MOL     -0.451180
     71 C23         1.4150    3.5340    1.1590 c         1 MOL      0.723064
     72 O13         1.4660    2.5160    0.4580 o         1 MOL     -0.587520
     73 C24         2.1040    5.3570   -0.2630 c3        1 MOL      0.547291
     74 C25         2.6300    6.7790   -0.2810 c3        1 MOL     -0.505562
     75 O14         2.5330    4.7450   -1.4430 oh        1 MOL     -0.603428
     76 H29         3.9490    3.0240    0.3260 hn        1 MOL      0.070414
     77 H30         2.5540    5.2870    1.7470 h1        1 MOL      0.126672
     78 H31         1.0200    5.3990   -0.2430 h1        1 MOL     -0.023984
     79 H32         2.5750    3.7920   -1.3270 ho        1 MOL      0.377653
     80 H33         3.6960    6.8180   -0.4760 hc        1 MOL      0.127407
     81 H34         2.1870    7.3860   -1.0720 hc        1 MOL      0.127407
     82 H35         2.5160    7.3410    0.6490 hc        1 MOL      0.127407
     83 N9          0.3860    3.8910    1.9260 n         1 MOL     -0.532044
     84 C26        -0.8390    3.0130    2.0720 c3        1 MOL     -0.002093
     85 C27        -1.6070    3.1670    0.7640 c         1 MOL      0.472846
     86 O15        -2.0150    4.2660    0.3900 o         1 MOL     -0.576604
     87 C28        -1.6740    3.3090    3.3420 c3        1 MOL      0.020353
     88 C29        -0.6900    2.9890    4.5090 c3        1 MOL      0.005479
     89 C30        -2.9430    2.2510    3.2670 c3        1 MOL     -0.059227
     90 C31        -1.4160    3.1690    5.7700 c3        1 MOL     -0.032051
     91 H36         0.2580    4.8020    2.3300 hn        1 MOL      0.316902
     92 H37        -0.3980    2.0120    2.0330 h1        1 MOL      0.065845
     93 H38        -2.0700    4.3240    3.2830 hc        1 MOL      0.040164
     94 H39         0.2090    3.5930    4.3810 hc        1 MOL      0.001385
     95 H40        -0.2830    1.9800    4.5340 hc        1 MOL      0.001385
     96 H41        -3.4680    2.2150    2.3140 hc        1 MOL      0.012286
     97 H42        -2.4590    1.2950    3.4500 hc        1 MOL      0.012286
     98 H43        -3.7590    2.4930    3.9410 hc        1 MOL      0.012286
     99 H44        -0.7310    3.1580    6.6160 hc        1 MOL     -0.000679
    100 H45        -1.8860    4.1450    5.8600 hc        1 MOL     -0.000679
    101 H46        -2.1600    2.4060    6.0270 hc        1 MOL     -0.000679
    102 N10        -1.7400    2.0980   -0.0330 n         1 MOL     -0.108829
    103 C32        -2.5940    1.9450   -1.1950 c3        1 MOL     -0.004212
    104 C33        -4.0210    1.4950   -0.8510 c         1 MOL      0.410901
    105 O16        -4.2680    1.2180    0.3600 o         1 MOL     -0.363101
    106 C34        -2.0360    0.8590   -2.1230 c3        1 MOL     -0.282928
    107 C35        -0.5460    1.0610   -2.4910 c         1 MOL      0.745964
    108 O17         0.3050    0.4840   -1.8030 o         1 MOL     -0.688304
    109 O18        -0.1750    1.7880   -3.4630 o         1 MOL     -0.688304
    110 H47        -1.2980    1.2660    0.3370 hn        1 MOL      0.138043
    111 H48        -2.6160    2.9430   -1.6350 h1        1 MOL      0.082821
    112 H49        -2.6480    0.8470   -3.0320 hc        1 MOL      0.068409
    113 H50        -1.9380   -0.1020   -1.6150 hc        1 MOL      0.068409
    114 N11        -4.9760    1.5910   -1.7850 n         1 MOL     -0.558080
    115 C36        -6.3410    1.2050   -1.5140 c3        1 MOL      0.340025
    116 C37        -6.4770   -0.2330   -1.0560 c         1 MOL      0.288119
    117 O19        -7.1180   -0.2940   -0.0060 o         1 MOL     -0.509900
    118 C38        -7.2430    1.6800   -2.6990 c3        1 MOL     -0.371114
    119 C39        -8.6990    1.4870   -2.4250 ca        1 MOL      0.301155
    120 C40        -9.4510    2.5100   -1.8120 ca        1 MOL     -0.286852
    121 C41        -9.3390    0.3500   -2.9930 ca        1 MOL     -0.286852
    122 C42       -10.8290    2.3750   -1.7540 ca        1 MOL     -0.033802
    123 C43       -10.7610    0.2030   -2.7470 ca        1 MOL     -0.033802
    124 C44       -11.5390    1.2550   -2.2050 ca        1 MOL     -0.197682
    125 H51        -4.6980    1.8380   -2.7220 hn        1 MOL      0.336104
    126 H52        -6.5650    1.7620   -0.6050 h1        1 MOL      0.059533
    127 H53        -6.9690    1.2030   -3.6400 hc        1 MOL      0.099145
    128 H54        -6.9890    2.7170   -2.9130 hc        1 MOL      0.099145
    129 H55        -8.9390    3.2890   -1.2660 ha        1 MOL      0.150752
    130 H56        -8.8320   -0.4080   -3.5690 ha        1 MOL      0.150752
    131 H57       -11.3560    3.0870   -1.1290 ha        1 MOL      0.094295
    132 H58       -11.2600   -0.7250   -2.9960 ha        1 MOL      0.094295
    133 H59       -12.6060    1.1720   -2.0520 ha        1 MOL      0.128291
    134 N12        -6.0350   -1.3840   -1.6610 n         1 MOL     -0.000808
    135 C45        -6.3070   -2.6640   -1.0800 c3        1 MOL     -0.053438
    136 C46        -5.7690   -2.8650    0.3620 c         1 MOL      0.372849
    137 O20        -6.2420   -3.7690    1.0330 o         1 MOL     -0.507280
    138 C47        -5.6760   -3.6170   -2.0960 c3        1 MOL     -0.020052
    139 C48        -5.7450   -2.9020   -3.4250 c3        1 MOL     -0.026111
    140 C49        -5.2830   -1.5370   -2.9010 c3        1 MOL     -0.114161
    141 H60        -7.3840   -2.7920   -1.0330 h1        1 MOL      0.076901
    142 H61        -4.6450   -3.6940   -1.7510 hc        1 MOL      0.037847
    143 H62        -6.1130   -4.6140   -2.1110 hc        1 MOL      0.037847
    144 H63        -5.1310   -3.2580   -4.2510 hc        1 MOL      0.028835
    145 H64        -6.7780   -2.7730   -3.7220 hc        1 MOL      0.028835
    146 H65        -4.2100   -1.5950   -2.7360 h1        1 MOL      0.070385
    147 H66        -5.5550   -0.7290   -3.5860 h1        1 MOL      0.070385
    148 N13        -4.7700   -2.0570    0.7650 n         1 MOL     -0.149437
    149 C50        -4.0880   -1.9530    2.1400 c3        1 MOL     -0.105844
    150 C51        -4.9140   -1.1890    3.1240 c         1 MOL      0.437540
    151 O21        -5.0270   -1.5370    4.2660 o         1 MOL     -0.548148
    152 C52        -2.6660   -1.3920    1.9300 c3        1 MOL     -0.015084
    153 C53        -1.8890   -1.9790    0.7320 c3        1 MOL      0.025179
    154 C54        -0.4740   -1.3110    0.5660 c         1 MOL      0.699841
    155 O22         0.4640   -1.9100   -0.0240 o         1 MOL     -0.749766
    156 O23        -0.2640   -0.1870    1.0270 o         1 MOL     -0.749766
    157 H67        -4.6510   -1.2160    0.2170 hn        1 MOL      0.089813
    158 H68        -3.9760   -2.9910    2.4640 h1        1 MOL      0.112928
    159 H69        -2.0740   -1.5700    2.8210 hc        1 MOL      0.037740
    160 H70        -2.7880   -0.3450    1.6400 hc        1 MOL      0.037740
    161 H71        -2.4260   -1.8650   -0.2110 hc        1 MOL      0.016614
    162 H72        -1.7550   -3.0540    0.8560 hc        1 MOL      0.016614
    163 N14        -5.6110   -0.1810    2.6130 n         1 MOL     -0.007397
    164 C55        -6.5390    0.5750    3.4880 c3        1 MOL     -0.178087
    165 H73        -6.4220    0.2360    4.5180 h1        1 MOL      0.067583
    166 H74        -6.3100    1.6390    3.4280 h1        1 MOL      0.067583
    167 H75        -7.5650    0.4040    3.1640 h1        1 MOL      0.067583
    168 H76        -5.4130    0.1940    1.6930 hn        1 MOL      0.096634
    169 Ca1         2.1890   -0.0000   -0.2700 Ca        1 MOL      1.685622
    170 O24         1.8220    0.3030    2.5110 oh        1 MOL     -0.909221
    171 H77         0.8790    0.3340    2.3320 ho        1 MOL      0.436412
    172 H78         1.8760    0.1330    3.4580 ho        1 MOL      0.436412
    173 O25         4.0700    1.1120    1.4360 oh        1 MOL     -0.909221
    174 H79         3.4290    0.9410    2.1200 ho        1 MOL      0.436412
    175 H80         4.9130    0.9190    1.8380 ho        1 MOL      0.436412
@<TRIPOS>BOND
     1    1    2 1   
     2    1    4 1   
     3    1    5 1   
     4    1    6 1   
     5    2    3 2   
     6    2    7 1   
     7    7    8 1   
     8    7   15 1   
     9    8    9 1   
    10    8   11 1   
    11    8   16 1   
    12    9   10 2   
    13    9   19 1   
    14   11   12 1   
    15   11   17 1   
    16   11   18 1   
    17   12   13 1   
    18   12   14 1   
    19   19   20 1   
    20   19   24 1   
    21   20   21 1   
    22   20   23 1   
    23   20   25 1   
    24   21   22 2   
    25   21   29 1   
    26   23   26 1   
    27   23   27 1   
    28   23   28 1   
    29   29   30 1   
    30   29   37 1   
    31   30   31 1   
    32   30   33 1   
    33   30   38 1   
    34   31   32 2   
    35   31   41 1   
    36   33   34 1   
    37   33   39 1   
    38   33   40 1   
    39   34   35 1   
    40   34   36 1   
    41   41   42 1   
    42   41   45 1   
    43   42   43 1   
    44   42   46 1   
    45   42   47 1   
    46   43   44 2   
    47   43   48 1   
    48   48   49 1   
    49   48   56 1   
    50   49   50 1   
    51   49   52 1   
    52   49   57 1   
    53   50   51 2   
    54   50   62 1   
    55   52   53 1   
    56   52   58 1   
    57   52   59 1   
    58   53   54 1   
    59   53   55 2   
    60   54   60 1   
    61   54   61 1   
    62   62   63 1   
    63   62   66 1   
    64   63   64 1   
    65   63   67 1   
    66   63   68 1   
    67   64   65 2   
    68   64   69 1   
    69   69   70 1   
    70   69   76 1   
    71   70   71 1   
    72   70   73 1   
    73   70   77 1   
    74   71   72 2   
    75   71   83 1   
    76   73   74 1   
    77   73   75 1   
    78   73   78 1   
    79   74   80 1   
    80   74   81 1   
    81   74   82 1   
    82   75   79 1   
    83   83   84 1   
    84   83   91 1   
    85   84   85 1   
    86   84   87 1   
    87   84   92 1   
    88   85   86 2   
    89   85  102 1   
    90   87   88 1   
    91   87   89 1   
    92   87   93 1   
    93   88   90 1   
    94   88   94 1   
    95   88   95 1   
    96   89   96 1   
    97   89   97 1   
    98   89   98 1   
    99   90   99 1   
   100   90  100 1   
   101   90  101 1   
   102  102  103 1   
   103  102  110 1   
   104  103  104 1   
   105  103  106 1   
   106  103  111 1   
   107  104  105 2   
   108  104  114 1   
   109  106  107 1   
   110  106  112 1   
   111  106  113 1   
   112  107  108 1   
   113  107  109 1   
   114  114  115 1   
   115  114  125 1   
   116  115  116 1   
   117  115  118 1   
   118  115  126 1   
   119  116  117 2   
   120  116  134 1   
   121  118  119 1   
   122  118  127 1   
   123  118  128 1   
   124  119  120 ar  
   125  119  121 ar  
   126  120  122 ar  
   127  120  129 1   
   128  121  123 ar  
   129  121  130 1   
   130  122  124 ar  
   131  122  131 1   
   132  123  124 ar  
   133  123  132 1   
   134  124  133 1   
   135  134  135 1   
   136  134  140 1   
   137  135  136 1   
   138  135  138 1   
   139  135  141 1   
   140  136  137 2   
   141  136  148 1   
   142  138  139 1   
   143  138  142 1   
   144  138  143 1   
   145  139  140 1   
   146  139  144 1   
   147  139  145 1   
   148  140  146 1   
   149  140  147 1   
   150  148  149 1   
   151  148  157 1   
   152  149  150 1   
   153  149  152 1   
   154  149  158 1   
   155  150  151 2   
   156  150  163 1   
   157  152  153 1   
   158  152  159 1   
   159  152  160 1   
   160  153  154 1   
   161  153  161 1   
   162  153  162 1   
   163  154  155 1   
   164  154  156 1   
   165  163  164 1   
   166  163  168 1   
   167  164  165 1   
   168  164  166 1   
   169  164  167 1   
   170  170  171 1   
   171  170  172 1   
   172  173  174 1   
   173  173  175 1   
@<TRIPOS>SUBSTRUCTURE
     1 MOL         1 TEMP              0 ****  ****    0 ROOT
