@<TRIPOS>MOLECULE
MOL
  189   185     1     0     0
SMALL
resp


@<TRIPOS>ATOM
      1 C1          0.5100    2.8270   -5.6830 c3        1 MOL     -0.243364
      2 C2          0.9520    2.3680   -4.2510 c         1 MOL      0.501206
      3 O1          0.1560    2.6230   -3.3300 o         1 MOL     -0.528685
      4 H1         -0.0940    3.7300   -5.6030 hc        1 MOL      0.070703
      5 H2          1.3940    3.0340   -6.2870 hc        1 MOL      0.070703
      6 H3         -0.0760    2.0380   -6.1540 hc        1 MOL      0.070703
      7 N1          2.1850    1.7800   -4.0680 n         1 MOL     -0.536037
      8 C3          2.6900    1.3620   -2.7110 c3        1 MOL      0.126369
      9 C4          3.2320    2.6250   -2.0230 c         1 MOL      0.454408
     10 O2          4.4380    2.7750   -1.8120 o         1 MOL     -0.472578
     11 C5          3.6910    0.1890   -2.7120 c3        1 MOL      0.002705
     12 C6          4.0770   -0.2970   -1.3360 c         1 MOL      0.701495
     13 O3          3.3530    0.0920   -0.3110 o         1 MOL     -0.708594
     14 O4          5.1080   -0.9700   -1.2180 o         1 MOL     -0.708594
     15 H4          2.6940    1.6270   -4.9180 hn        1 MOL      0.328292
     16 H5          1.8140    0.9980   -2.1760 h1        1 MOL     -0.022631
     17 H6          4.5550    0.5050   -3.3110 hc        1 MOL     -0.002884
     18 H7          3.2160   -0.6150   -3.2830 hc        1 MOL     -0.002884
     19 N2          2.3620    3.5990   -1.6770 n         1 MOL     -0.220103
     20 C7          2.7490    4.9230   -1.1420 c3        1 MOL     -0.361660
     21 C8          3.7130    4.9490    0.0930 c         1 MOL      0.597572
     22 O5          4.4990    5.9350    0.3150 o         1 MOL     -0.588274
     23 C9          1.4540    5.7530   -0.8850 c3        1 MOL      0.026389
     24 C10         1.6300    7.2630   -0.6640 c3        1 MOL     -0.254112
     25 C11         0.2620    7.8630   -0.4960 c3        1 MOL     -0.097536
     26 C12         0.4180    9.3400   -0.6760 c3        1 MOL      0.185037
     27 N3         -0.8220   10.1100   -0.5820 n4        1 MOL     -0.466404
     28 H8          1.3990    3.4900   -1.9710 hn        1 MOL      0.251872
     29 H9          3.2740    5.3310   -2.0010 h1        1 MOL      0.155984
     30 H10         0.8590    5.3360   -0.0770 hc        1 MOL      0.090590
     31 H11         0.7600    5.5770   -1.7060 hc        1 MOL      0.090590
     32 H12         2.1770    7.6500   -1.5300 hc        1 MOL      0.106279
     33 H13         2.2410    7.3870    0.2190 hc        1 MOL      0.106279
     34 H14        -0.1290    7.7630    0.5200 hc        1 MOL      0.049131
     35 H15        -0.4850    7.3100   -1.0710 hc        1 MOL      0.049131
     36 H16         0.8370    9.4690   -1.6750 hx        1 MOL      0.055061
     37 H17         1.1670    9.7840   -0.0360 hx        1 MOL      0.055061
     38 H18        -0.9140   10.3830    0.3830 hn        1 MOL      0.353427
     39 H19        -0.7820   10.8800   -1.2320 hn        1 MOL      0.353427
     40 H20        -1.5590    9.4290   -0.7370 hn        1 MOL      0.353427
     41 N4          3.7220    3.8420    0.8800 n         1 MOL     -0.400327
     42 C13         4.6460    3.6700    2.0640 c3        1 MOL      0.111443
     43 C14         5.7930    2.6380    1.9170 c         1 MOL      0.358429
     44 O6          6.5070    2.3630    2.8370 o         1 MOL     -0.514667
     45 C15         3.8700    3.3280    3.3040 c3        1 MOL     -0.224546
     46 C16         2.6830    2.3170    3.3120 c         1 MOL      0.791071
     47 O7          2.6040    1.4740    2.4020 o         1 MOL     -0.734540
     48 O8          1.7680    2.4100    4.2070 o         1 MOL     -0.734540
     49 H21         2.9450    3.2160    0.7310 hn        1 MOL      0.297429
     50 H22         5.0490    4.6400    2.3410 h1        1 MOL      0.090002
     51 H23         3.4120    4.2870    3.5240 hc        1 MOL      0.042253
     52 H24         4.5490    3.1500    4.1370 hc        1 MOL      0.042253
     53 N5          5.8490    2.0790    0.7240 n         1 MOL     -0.081948
     54 C17         7.0550    1.3510    0.1880 c3        1 MOL     -0.129282
     55 C18         7.3660   -0.0370    0.8450 c         1 MOL      0.441037
     56 O9          8.4560   -0.5900    0.7640 o         1 MOL     -0.550132
     57 H25         5.2530    2.3160   -0.0560 hn        1 MOL      0.115523
     58 H26         7.8860    2.0380    0.3500 h1        1 MOL      0.082412
     59 H27         6.9940    1.2720   -0.9060 h1        1 MOL      0.082412
     60 N6          6.3340   -0.5600    1.5220 n         1 MOL     -0.146593
     61 C19         6.5220   -1.7300    2.4180 c3        1 MOL     -0.020857
     62 C20         6.7400   -3.0330    1.6020 c         1 MOL      0.451562
     63 O10         7.4120   -3.9450    2.0770 o         1 MOL     -0.576321
     64 C21         5.3610   -1.8550    3.4220 c3        1 MOL     -0.355631
     65 C22         3.9420   -1.9040    2.8750 c         1 MOL      0.821459
     66 O11         3.0680   -1.3760    3.5500 o         1 MOL     -0.724257
     67 O12         3.6890   -2.3150    1.7550 o         1 MOL     -0.724257
     68 H28         5.4680   -0.0370    1.4200 hn        1 MOL      0.196192
     69 H29         7.4300   -1.6180    3.0260 h1        1 MOL      0.092661
     70 H30         5.4060   -0.9950    4.0900 hc        1 MOL      0.105165
     71 H31         5.4840   -2.7400    4.0440 hc        1 MOL      0.105165
     72 N7          6.1690   -3.1100    0.4290 n         1 MOL     -0.166639
     73 C23         6.3930   -4.2110   -0.4700 c3        1 MOL     -0.179136
     74 C24         5.1120   -4.6650   -1.0880 c         1 MOL      0.621111
     75 O13         5.0880   -5.4190   -2.0600 o         1 MOL     -0.606124
     76 H32         5.6220   -2.2930    0.2230 hn        1 MOL      0.340349
     77 H33         6.8330   -5.0740    0.0290 h1        1 MOL      0.097807
     78 H34         6.9850   -3.9160   -1.3410 h1        1 MOL      0.097807
     79 N8          3.9690   -4.2840   -0.5010 n         1 MOL     -0.381899
     80 C25         2.5650   -4.7280   -0.8830 c3        1 MOL      0.049765
     81 C26         1.5990   -3.5690   -1.0940 c         1 MOL      0.745007
     82 O14         1.6730   -2.5440   -0.4050 o         1 MOL     -0.652918
     83 C27         1.9490   -5.8430    0.0340 c3        1 MOL      0.270473
     84 C28         2.7660   -7.1180    0.0460 c3        1 MOL     -0.571832
     85 O15         1.7970   -5.5160    1.3990 oh        1 MOL     -0.550104
     86 H35         3.9850   -3.5690    0.2130 hn        1 MOL      0.164407
     87 H36         2.6190   -5.2090   -1.8590 h1        1 MOL      0.035053
     88 H37         0.9490   -6.0630   -0.3500 h1        1 MOL      0.065755
     89 H38         2.6890   -5.6540    1.7250 ho        1 MOL      0.392848
     90 H39         3.6520   -7.0590    0.6820 hc        1 MOL      0.155910
     91 H40         2.0400   -7.8020    0.4690 hc        1 MOL      0.155910
     92 H41         3.1390   -7.4840   -0.9160 hc        1 MOL      0.155910
     93 N9          0.6050   -3.8180   -2.0030 n         1 MOL     -0.644175
     94 C29        -0.6230   -3.0320   -2.2060 c3        1 MOL      0.106704
     95 C30        -1.8200   -3.4960   -1.3510 c         1 MOL      0.518069
     96 O16        -2.0380   -4.7320   -1.3640 o         1 MOL     -0.589240
     97 C31        -1.0830   -3.1720   -3.6590 c3        1 MOL      0.157295
     98 C32        -0.1100   -2.4470   -4.6630 c3        1 MOL     -0.032035
     99 C33        -2.4390   -2.5950   -4.0040 c3        1 MOL     -0.354702
    100 C34         0.3580   -1.0370   -4.4820 c3        1 MOL     -0.022259
    101 H42         0.5630   -4.7480   -2.3890 hn        1 MOL      0.295396
    102 H43        -0.4110   -1.9850   -2.0140 h1        1 MOL      0.077332
    103 H44        -1.0960   -4.2280   -3.9140 hc        1 MOL      0.021188
    104 H45        -0.4250   -2.5790   -5.6970 hc        1 MOL     -0.013094
    105 H46         0.8100   -3.0280   -4.5370 hc        1 MOL     -0.013094
    106 H47        -2.4670   -1.5590   -3.6700 hc        1 MOL      0.076161
    107 H48        -2.6120   -2.6550   -5.0780 hc        1 MOL      0.076161
    108 H49        -3.1740   -3.2560   -3.5640 hc        1 MOL      0.076161
    109 H50         1.1700   -0.7360   -5.1440 hc        1 MOL      0.028529
    110 H51        -0.4750   -0.3380   -4.5710 hc        1 MOL      0.028529
    111 H52         0.8230   -0.9290   -3.4920 hc        1 MOL      0.028529
    112 N10        -2.4620   -2.5780   -0.6470 n         1 MOL     -0.017416
    113 C35        -3.6900   -2.8300    0.2130 c3        1 MOL     -0.061156
    114 C36        -5.1040   -2.4920   -0.3670 c         1 MOL      0.284116
    115 O17        -5.2510   -2.2600   -1.6030 o         1 MOL     -0.370865
    116 C37        -3.6490   -2.0760    1.5360 c3        1 MOL      0.099277
    117 C38        -2.3460   -2.3680    2.3200 c3        1 MOL     -0.363085
    118 O18        -3.8720   -0.7320    1.3080 oh        1 MOL     -0.501416
    119 H53        -2.0570   -1.6530   -0.6200 hn        1 MOL     -0.005021
    120 H54        -3.6180   -3.8700    0.5280 h1        1 MOL      0.088993
    121 H55        -4.4660   -2.3860    2.1970 h1        1 MOL      0.073283
    122 H56        -3.1760   -0.2370    1.7570 ho        1 MOL      0.417255
    123 H57        -1.5630   -1.7060    1.9610 hc        1 MOL      0.099197
    124 H58        -2.6050   -2.1870    3.3630 hc        1 MOL      0.099197
    125 H59        -1.9850   -3.3750    2.1340 hc        1 MOL      0.099197
    126 N11        -6.1740   -2.6440    0.3980 n         1 MOL     -0.152136
    127 C39        -7.5510   -2.2320    0.0110 c3        1 MOL     -0.257156
    128 C40        -7.5970   -0.7370   -0.2790 c         1 MOL      0.428310
    129 O19        -8.0170   -0.2730   -1.3390 o         1 MOL     -0.466798
    130 C41        -8.6240   -2.5900    1.2080 c3        1 MOL      0.454016
    131 C42        -8.4650   -4.0450    1.7100 c3        1 MOL     -0.422038
    132 O20        -8.3700   -1.7350    2.3100 oh        1 MOL     -0.655033
    133 H60        -5.9930   -3.0160    1.3160 hn        1 MOL      0.186055
    134 H61        -7.8560   -2.7860   -0.8750 h1        1 MOL      0.158036
    135 H62        -9.6570   -2.5220    0.8600 h1        1 MOL      0.012658
    136 H63        -9.0180   -1.8770    3.0060 ho        1 MOL      0.379595
    137 H64        -8.6900   -4.7720    0.9310 hc        1 MOL      0.113549
    138 H65        -7.5390   -4.1740    2.2650 hc        1 MOL      0.113549
    139 H66        -9.2480   -4.1190    2.4720 hc        1 MOL      0.113549
    140 N12        -6.9840    0.0340    0.6590 n         1 MOL     -0.357537
    141 C43        -6.8560    1.5140    0.6270 c3        1 MOL      0.045430
    142 C44        -5.9560    1.9220   -0.5400 c         1 MOL      0.397223
    143 O21        -6.2640    2.9160   -1.1040 o         1 MOL     -0.528513
    144 C45        -6.4160    1.9820    2.0110 c3        1 MOL     -0.122709
    145 C46        -7.2930    1.4820    3.1210 c3        1 MOL      0.105387
    146 C47        -7.0120    2.1280    4.5090 c3        1 MOL      0.007171
    147 C48        -7.8440    1.3740    5.5610 c3        1 MOL      0.068008
    148 N13        -7.7260    1.9980    6.9180 n4        1 MOL     -0.278508
    149 H67        -6.6160   -0.4280    1.4840 hn        1 MOL      0.277503
    150 H68        -7.8480    1.9300    0.4290 h1        1 MOL      0.098424
    151 H69        -6.4860    3.0630    1.9140 hc        1 MOL      0.026761
    152 H70        -5.3860    1.7000    2.2420 hc        1 MOL      0.026761
    153 H71        -7.0930    0.4170    3.2060 hc        1 MOL     -0.011467
    154 H72        -8.3520    1.5560    2.8590 hc        1 MOL     -0.011467
    155 H73        -7.4070    3.1480    4.4730 hc        1 MOL      0.019900
    156 H74        -5.9550    2.1540    4.7970 hc        1 MOL      0.019900
    157 H75        -7.5970    0.3080    5.5910 hx        1 MOL      0.058305
    158 H76        -8.8870    1.5140    5.2730 hx        1 MOL      0.058305
    159 H77        -7.7770    2.9970    6.7780 hn        1 MOL      0.263981
    160 H78        -8.4980    1.6740    7.4900 hn        1 MOL      0.263981
    161 H79        -6.8250    1.7980    7.3420 hn        1 MOL      0.263981
    162 N14        -4.9080    1.1830   -0.9160 n         1 MOL     -0.005875
    163 C49        -4.0340    1.5080   -2.0610 c3        1 MOL     -0.281685
    164 C50        -4.5450    0.9760   -3.4080 c         1 MOL      0.583302
    165 O22        -4.2190    1.5660   -4.4380 o         1 MOL     -0.565194
    166 C51        -2.6670    0.9050   -1.7750 c3        1 MOL      0.157515
    167 C52        -1.9550    1.6920   -0.6400 c3        1 MOL     -0.190257
    168 C53        -0.6630    0.9100   -0.2110 c         1 MOL      0.631874
    169 O23        -0.7600   -0.3530   -0.0410 o         1 MOL     -0.682043
    170 O24         0.3860    1.5480    0.1030 o         1 MOL     -0.682043
    171 H80        -4.6090    0.4450   -0.2850 hn        1 MOL      0.123296
    172 H81        -3.7800    2.5550   -2.2130 h1        1 MOL      0.111694
    173 H82        -2.1200    1.0190   -2.7120 hc        1 MOL      0.045214
    174 H83        -2.7610   -0.1780   -1.6400 hc        1 MOL      0.045214
    175 H84        -2.6580    1.7550    0.1950 hc        1 MOL      0.022911
    176 H85        -1.5520    2.6600   -0.9440 hc        1 MOL      0.022911
    177 N15        -5.4180   -0.0450   -3.3860 n         1 MOL     -0.173941
    178 C54        -6.2210   -0.3920   -4.6090 c3        1 MOL     -0.407043
    179 H86        -6.8390    0.4610   -4.8910 h1        1 MOL      0.143941
    180 H87        -5.5480   -0.6380   -5.4290 h1        1 MOL      0.143941
    181 H88        -6.8610   -1.2470   -4.3930 h1        1 MOL      0.143941
    182 H89        -5.5840   -0.6440   -2.5830 hn        1 MOL      0.164074
    183 Ca1         1.5610   -0.6570    1.3760 Ca        1 MOL      1.776251
    184 O25         0.2680    0.1840    3.7360 oh        1 MOL     -0.835158
    185 H90         0.7990    0.9380    4.0010 ho        1 MOL      0.385701
    186 H91         0.0890   -0.2840    4.5530 ho        1 MOL      0.385701
    187 O26         0.7490   -3.2180    2.4830 oh        1 MOL     -0.835158
    188 H92         0.1330   -3.3940    3.2000 ho        1 MOL      0.385701
    189 H93         0.9140   -4.0730    2.0960 ho        1 MOL      0.385701
@<TRIPOS>BOND
     1    1    2 1   
     2    1    4 1   
     3    1    5 1   
     4    1    6 1   
     5    2    3 2   
     6    2    7 1   
     7    7    8 1   
     8    7   15 1   
     9    8    9 1   
    10    8   11 1   
    11    8   16 1   
    12    9   10 2   
    13    9   19 1   
    14   11   12 1   
    15   11   17 1   
    16   11   18 1   
    17   12   13 1   
    18   12   14 1   
    19   19   20 1   
    20   19   28 1   
    21   20   21 1   
    22   20   23 1   
    23   20   29 1   
    24   21   22 2   
    25   21   41 1   
    26   23   24 1   
    27   23   30 1   
    28   23   31 1   
    29   24   25 1   
    30   24   32 1   
    31   24   33 1   
    32   25   26 1   
    33   25   34 1   
    34   25   35 1   
    35   26   27 1   
    36   26   36 1   
    37   26   37 1   
    38   27   38 1   
    39   27   39 1   
    40   27   40 1   
    41   41   42 1   
    42   41   49 1   
    43   42   43 1   
    44   42   45 1   
    45   42   50 1   
    46   43   44 2   
    47   43   53 1   
    48   45   46 1   
    49   45   51 1   
    50   45   52 1   
    51   46   47 1   
    52   46   48 1   
    53   53   54 1   
    54   53   57 1   
    55   54   55 1   
    56   54   58 1   
    57   54   59 1   
    58   55   56 2   
    59   55   60 1   
    60   60   61 1   
    61   60   68 1   
    62   61   62 1   
    63   61   64 1   
    64   61   69 1   
    65   62   63 2   
    66   62   72 1   
    67   64   65 1   
    68   64   70 1   
    69   64   71 1   
    70   65   66 1   
    71   65   67 1   
    72   72   73 1   
    73   72   76 1   
    74   73   74 1   
    75   73   77 1   
    76   73   78 1   
    77   74   75 2   
    78   74   79 1   
    79   79   80 1   
    80   79   86 1   
    81   80   81 1   
    82   80   83 1   
    83   80   87 1   
    84   81   82 2   
    85   81   93 1   
    86   83   84 1   
    87   83   85 1   
    88   83   88 1   
    89   84   90 1   
    90   84   91 1   
    91   84   92 1   
    92   85   89 1   
    93   93   94 1   
    94   93  101 1   
    95   94   95 1   
    96   94   97 1   
    97   94  102 1   
    98   95   96 2   
    99   95  112 1   
   100   97   98 1   
   101   97   99 1   
   102   97  103 1   
   103   98  100 1   
   104   98  104 1   
   105   98  105 1   
   106   99  106 1   
   107   99  107 1   
   108   99  108 1   
   109  100  109 1   
   110  100  110 1   
   111  100  111 1   
   112  112  113 1   
   113  112  119 1   
   114  113  114 1   
   115  113  116 1   
   116  113  120 1   
   117  114  115 2   
   118  114  126 1   
   119  116  117 1   
   120  116  118 1   
   121  116  121 1   
   122  117  123 1   
   123  117  124 1   
   124  117  125 1   
   125  118  122 1   
   126  126  127 1   
   127  126  133 1   
   128  127  128 1   
   129  127  130 1   
   130  127  134 1   
   131  128  129 2   
   132  128  140 1   
   133  130  131 1   
   134  130  132 1   
   135  130  135 1   
   136  131  137 1   
   137  131  138 1   
   138  131  139 1   
   139  132  136 1   
   140  140  141 1   
   141  140  149 1   
   142  141  142 1   
   143  141  144 1   
   144  141  150 1   
   145  142  143 2   
   146  142  162 1   
   147  144  145 1   
   148  144  151 1   
   149  144  152 1   
   150  145  146 1   
   151  145  153 1   
   152  145  154 1   
   153  146  147 1   
   154  146  155 1   
   155  146  156 1   
   156  147  148 1   
   157  147  157 1   
   158  147  158 1   
   159  148  159 1   
   160  148  160 1   
   161  148  161 1   
   162  162  163 1   
   163  162  171 1   
   164  163  164 1   
   165  163  166 1   
   166  163  172 1   
   167  164  165 2   
   168  164  177 1   
   169  166  167 1   
   170  166  173 1   
   171  166  174 1   
   172  167  168 1   
   173  167  175 1   
   174  167  176 1   
   175  168  169 1   
   176  168  170 1   
   177  177  178 1   
   178  177  182 1   
   179  178  179 1   
   180  178  180 1   
   181  178  181 1   
   182  184  185 1   
   183  184  186 1   
   184  187  188 1   
   185  187  189 1   
@<TRIPOS>SUBSTRUCTURE
     1 MOL         1 TEMP              0 ****  ****    0 ROOT
