@<TRIPOS>MOLECULE
MOL
  189   185     1     0     0
SMALL
resp


@<TRIPOS>ATOM
      1 C1          0.1620    3.8070   -4.9900 c3        1 MOL     -0.343800
      2 C2          0.5960    3.2030   -3.6380 c         1 MOL      0.620024
      3 O1         -0.1020    3.3000   -2.6260 o         1 MOL     -0.565261
      4 H1         -0.8820    4.1140   -4.9330 hc        1 MOL      0.089392
      5 H2          0.7830    4.6740   -5.2180 hc        1 MOL      0.089392
      6 H3          0.2780    3.0600   -5.7760 hc        1 MOL      0.089392
      7 N1          1.8170    2.6900   -3.5820 n         1 MOL     -0.543256
      8 C3          2.3720    2.0980   -2.2970 c3        1 MOL      0.150394
      9 C4          2.9600    3.0570   -1.1690 c         1 MOL      0.401637
     10 O2          4.1710    3.2050   -0.9920 o         1 MOL     -0.440279
     11 C5          3.3750    0.9030   -2.5200 c3        1 MOL     -0.163193
     12 C6          3.9240    0.2890   -1.2750 c         1 MOL      0.654465
     13 O3          3.3100    0.3720   -0.1850 o         1 MOL     -0.614122
     14 O4          5.0260   -0.3290   -1.3510 o         1 MOL     -0.614122
     15 H4          2.4310    2.7450   -4.3790 hn        1 MOL      0.320938
     16 H5          1.4390    1.6760   -1.9140 h1        1 MOL      0.054509
     17 H6          4.2770    1.3300   -2.9700 hc        1 MOL      0.044173
     18 H7          3.0450    0.1530   -3.2390 hc        1 MOL      0.044173
     19 N2          2.0310    3.7920   -0.6020 n         1 MOL     -0.419577
     20 C7          2.1960    5.0630    0.2320 c3        1 MOL     -0.112957
     21 C8          2.7800    4.8340    1.5950 c         1 MOL      0.545880
     22 O5          3.0570    5.8070    2.2680 o         1 MOL     -0.588899
     23 C9          0.8020    5.7610    0.4240 c3        1 MOL     -0.226018
     24 C10         0.5000    6.6680   -0.7560 c3        1 MOL      0.362285
     25 C11        -0.9040    7.3590   -0.5060 c3        1 MOL      0.032429
     26 C12        -1.1950    8.3080   -1.6710 c3        1 MOL     -0.248457
     27 N3         -1.3270    7.5240   -2.8910 n4        1 MOL     -0.370509
     28 H8          1.0800    3.5130   -0.7670 hn        1 MOL      0.450923
     29 H9          2.9100    5.7230   -0.2640 h1        1 MOL      0.125522
     30 H10         0.7900    6.4250    1.2840 hc        1 MOL      0.074202
     31 H11        -0.0270    5.0500    0.4570 hc        1 MOL      0.074202
     32 H12         0.3650    6.0260   -1.6190 hc        1 MOL     -0.091256
     33 H13         1.2530    7.4560   -0.8480 hc        1 MOL     -0.091256
     34 H14        -0.9300    7.8760    0.4490 hc        1 MOL      0.024745
     35 H15        -1.6350    6.5590   -0.4250 hc        1 MOL      0.024745
     36 H16        -0.5870    9.2110   -1.6880 hx        1 MOL      0.160383
     37 H17        -2.2130    8.6540   -1.5250 hx        1 MOL      0.160383
     38 H18        -1.9050    6.7200   -2.7090 hn        1 MOL      0.342735
     39 H19        -1.8140    8.1380   -3.5310 hn        1 MOL      0.342735
     40 H20        -0.4150    7.2720   -3.2650 hn        1 MOL      0.342735
     41 N4          3.1240    3.6300    1.9370 n         1 MOL     -0.130807
     42 C13         4.0430    3.2720    3.0220 c3        1 MOL     -0.107882
     43 C14         5.2850    2.4320    2.6010 c         1 MOL      0.524483
     44 O6          6.2720    2.3340    3.2960 o         1 MOL     -0.563001
     45 C15         3.3490    2.7120    4.2480 c3        1 MOL     -0.075993
     46 C16         2.4880    1.4520    4.1320 c         1 MOL      0.691722
     47 O7          2.1780    0.9700    5.2070 o         1 MOL     -0.655993
     48 O8          2.1780    1.0470    2.9790 o         1 MOL     -0.655993
     49 H21         2.6790    2.8730    1.4360 hn        1 MOL      0.134171
     50 H22         4.4510    4.2310    3.3370 h1        1 MOL      0.094898
     51 H23         2.5850    3.4660    4.4770 hc        1 MOL      0.020010
     52 H24         4.0120    2.5850    5.0970 hc        1 MOL      0.020010
     53 N5          5.3250    1.9660    1.3740 n         1 MOL     -0.029745
     54 C17         6.6470    1.7320    0.6430 c3        1 MOL     -0.317442
     55 C18         7.0820    0.2350    0.7930 c         1 MOL      0.662039
     56 O9          8.2690   -0.0390    0.6650 o         1 MOL     -0.629410
     57 H25         4.5080    1.8680    0.7910 hn        1 MOL     -0.116285
     58 H26         7.4080    2.3860    1.0830 h1        1 MOL      0.147382
     59 H27         6.4960    1.9130   -0.4260 h1        1 MOL      0.147382
     60 N6          6.2620   -0.7070    1.2150 n         1 MOL     -0.294493
     61 C19         6.6590   -2.0410    1.7170 c3        1 MOL      0.012587
     62 C20         6.8700   -2.9630    0.4930 c         1 MOL      0.456056
     63 O10         7.0620   -4.1580    0.6750 o         1 MOL     -0.544931
     64 C21         5.6180   -2.4810    2.7500 c3        1 MOL     -0.274844
     65 C22         4.2060   -2.2710    2.3820 c         1 MOL      0.735111
     66 O11         3.3390   -1.9760    3.2460 o         1 MOL     -0.706551
     67 O12         3.9160   -2.3050    1.1900 o         1 MOL     -0.706551
     68 H28         5.2690   -0.5690    1.0520 hn        1 MOL      0.151648
     69 H29         7.6410   -2.0990    2.1820 h1        1 MOL      0.107241
     70 H30         5.8200   -1.9270    3.6660 hc        1 MOL      0.089356
     71 H31         5.8220   -3.5320    2.9090 hc        1 MOL      0.089356
     72 N7          6.6580   -2.4590   -0.7110 n         1 MOL     -0.231740
     73 C23         6.4730   -3.1230   -1.9890 c3        1 MOL     -0.128990
     74 C24         5.2850   -3.9570   -2.2690 c         1 MOL      0.523862
     75 O13         5.2280   -4.8910   -3.0880 o         1 MOL     -0.562268
     76 H32         6.3080   -1.5100   -0.7030 hn        1 MOL      0.220790
     77 H33         7.3050   -3.8130   -2.1810 h1        1 MOL      0.073143
     78 H34         6.3760   -2.3630   -2.7700 h1        1 MOL      0.073143
     79 N8          4.1870   -3.4450   -1.7020 n         1 MOL     -0.096850
     80 C25         2.8390   -3.9820   -1.9880 c3        1 MOL     -0.422357
     81 C26         1.6970   -2.9480   -1.9100 c         1 MOL      0.784451
     82 O14         1.6850   -2.0230   -1.0640 o         1 MOL     -0.680468
     83 C27         2.5030   -5.1480   -0.9970 c3        1 MOL      0.475469
     84 C28         3.2340   -6.4600   -1.2580 c3        1 MOL     -0.691466
     85 O15         2.8090   -4.7480    0.3870 oh        1 MOL     -0.640665
     86 H35         4.2600   -2.6220   -1.1230 hn        1 MOL      0.165681
     87 H36         2.8100   -4.4230   -2.9940 h1        1 MOL      0.149190
     88 H37         1.4470   -5.3820   -0.9590 h1        1 MOL      0.006640
     89 H38         3.3560   -3.9560    0.4210 ho        1 MOL      0.442236
     90 H39         4.3070   -6.3110   -1.3450 hc        1 MOL      0.190543
     91 H40         2.9800   -7.1020   -0.4120 hc        1 MOL      0.190543
     92 H41         2.8990   -6.8530   -2.2280 hc        1 MOL      0.190543
     93 N9          0.6580   -3.1970   -2.6940 n         1 MOL     -0.621854
     94 C29        -0.5110   -2.3380   -2.6250 c3        1 MOL     -0.000780
     95 C30        -1.8540   -2.9170   -2.0570 c         1 MOL      0.483618
     96 O16        -2.2930   -4.0160   -2.5160 o         1 MOL     -0.573015
     97 C31        -0.8420   -1.7320   -4.0370 c3        1 MOL      0.206005
     98 C32         0.3760   -1.1790   -4.8290 c3        1 MOL      0.178593
     99 C33        -1.8380   -0.5270   -3.8080 c3        1 MOL     -0.594692
    100 C34         0.0350   -0.9290   -6.3060 c3        1 MOL     -0.264580
    101 H42         0.7000   -3.8150   -3.4880 hn        1 MOL      0.331831
    102 H43        -0.3330   -1.4830   -1.9730 h1        1 MOL      0.052754
    103 H44        -1.4250   -2.4510   -4.6300 hc        1 MOL     -0.003314
    104 H45         1.1400   -1.9450   -4.9190 hc        1 MOL     -0.015757
    105 H46         0.8450   -0.2750   -4.4370 hc        1 MOL     -0.015757
    106 H47        -2.1600   -0.0560   -4.7390 hc        1 MOL      0.130210
    107 H48        -2.7140   -0.9330   -3.3100 hc        1 MOL      0.130210
    108 H49        -1.3590    0.1980   -3.1490 hc        1 MOL      0.130210
    109 H50        -0.8030   -0.2340   -6.4160 hc        1 MOL      0.059027
    110 H51         0.8510   -0.4740   -6.8720 hc        1 MOL      0.059027
    111 H52        -0.3100   -1.8910   -6.6680 hc        1 MOL      0.059027
    112 N10        -2.3680   -2.4130   -0.9660 n         1 MOL     -0.007481
    113 C35        -3.5770   -2.8460   -0.3370 c3        1 MOL     -0.076661
    114 C36        -4.8990   -2.4050   -0.9090 c         1 MOL      0.369957
    115 O17        -4.9760   -1.4340   -1.6310 o         1 MOL     -0.343075
    116 C37        -3.4630   -2.5670    1.1580 c3        1 MOL      0.087687
    117 C38        -2.2680   -3.3490    1.7160 c3        1 MOL     -0.284017
    118 O18        -3.3830   -1.1700    1.3290 oh        1 MOL     -0.460604
    119 H53        -2.0160   -1.5370   -0.6040 hn        1 MOL      0.271619
    120 H54        -3.7830   -3.9200   -0.4010 h1        1 MOL      0.042423
    121 H55        -4.3780   -2.7790    1.7220 h1        1 MOL      0.085052
    122 H56        -2.5130   -0.8610    1.0840 ho        1 MOL      0.335120
    123 H57        -2.0180   -2.9910    2.7100 hc        1 MOL      0.078364
    124 H58        -2.6940   -4.3130    1.9880 hc        1 MOL      0.078364
    125 H59        -1.3960   -3.3210    1.0650 hc        1 MOL      0.078364
    126 N11        -6.0100   -2.9660   -0.3700 n         1 MOL     -0.235360
    127 C39        -7.2930   -2.3870   -0.5680 c3        1 MOL     -0.288439
    128 C40        -7.3540   -0.9260   -0.0770 c         1 MOL      0.358306
    129 O19        -7.9450   -0.0420   -0.7230 o         1 MOL     -0.468804
    130 C41        -8.4200   -3.2420    0.1480 c3        1 MOL      0.355312
    131 C42        -8.6710   -4.6650   -0.4500 c3        1 MOL     -0.379601
    132 O20        -8.1240   -3.4060    1.4940 oh        1 MOL     -0.616479
    133 H60        -5.9560   -3.7080    0.3060 hn        1 MOL      0.298174
    134 H61        -7.5260   -2.2560   -1.6260 h1        1 MOL      0.174002
    135 H62        -9.3840   -2.7540    0.2520 h1        1 MOL      0.038953
    136 H63        -8.8710   -3.0710    1.9920 ho        1 MOL      0.399576
    137 H64        -8.8030   -4.4270   -1.5070 hc        1 MOL      0.108972
    138 H65        -7.8070   -5.2930   -0.2350 hc        1 MOL      0.108972
    139 H66        -9.5860   -5.1200   -0.0690 hc        1 MOL      0.108972
    140 N12        -6.7660   -0.6930    1.0820 n         1 MOL     -0.077759
    141 C43        -6.6440    0.6080    1.6720 c3        1 MOL     -0.033978
    142 C44        -6.1130    1.6100    0.7390 c         1 MOL      0.385901
    143 O21        -6.7520    2.6050    0.4100 o         1 MOL     -0.490615
    144 C45        -5.7580    0.4580    2.9440 c3        1 MOL     -0.272000
    145 C46        -5.7290   -0.8490    3.8040 c3        1 MOL      0.140963
    146 C47        -4.7990   -0.7040    5.0440 c3        1 MOL     -0.317063
    147 C48        -5.3320    0.3110    6.1510 c3        1 MOL      0.074194
    148 N13        -6.5780   -0.0930    6.7810 n4        1 MOL     -0.360578
    149 H67        -6.2270   -1.4450    1.4960 hn        1 MOL      0.001735
    150 H68        -7.6510    0.9390    1.9290 h1        1 MOL      0.075127
    151 H69        -6.0010    1.3330    3.5500 hc        1 MOL      0.109783
    152 H70        -4.7150    0.5180    2.6260 hc        1 MOL      0.109783
    153 H71        -5.2360   -1.5930    3.1740 hc        1 MOL      0.022311
    154 H72        -6.7100   -1.2220    4.1040 hc        1 MOL      0.022311
    155 H73        -3.8740   -0.2010    4.7560 hc        1 MOL      0.140840
    156 H74        -4.7550   -1.7300    5.4000 hc        1 MOL      0.140840
    157 H75        -5.4320    1.3190    5.7530 hx        1 MOL      0.089681
    158 H76        -4.5880    0.4020    6.9470 hx        1 MOL      0.089681
    159 H77        -6.7170    0.3880    7.6500 hn        1 MOL      0.305560
    160 H78        -7.4040    0.0610    6.2290 hn        1 MOL      0.305560
    161 H79        -6.4830   -1.0620    7.0730 hn        1 MOL      0.305560
    162 N14        -4.9500    1.2390    0.2020 n         1 MOL     -0.014570
    163 C49        -4.1950    2.0820   -0.6730 c3        1 MOL     -0.029793
    164 C50        -4.8100    2.4160   -2.0340 c         1 MOL      0.381072
    165 O22        -4.5930    3.5250   -2.4980 o         1 MOL     -0.564220
    166 C51        -2.8070    1.4190   -0.9150 c3        1 MOL      0.019657
    167 C52        -1.9590    1.6690    0.3480 c3        1 MOL     -0.418129
    168 C53        -0.6920    0.8730    0.4090 c         1 MOL      0.964632
    169 O23         0.4150    1.4040    0.4620 o         1 MOL     -0.812450
    170 O24        -0.7530   -0.3880    0.5750 o         1 MOL     -0.812450
    171 H80        -4.4970    0.3650    0.4310 hn        1 MOL     -0.048026
    172 H81        -4.0930    3.0780   -0.2210 h1        1 MOL      0.065963
    173 H82        -2.3150    1.7900   -1.8190 hc        1 MOL      0.023169
    174 H83        -2.8770    0.3300   -1.0060 hc        1 MOL      0.023169
    175 H84        -2.5370    1.5300    1.2530 hc        1 MOL      0.090491
    176 H85        -1.7720    2.7460    0.2820 hc        1 MOL      0.090491
    177 N15        -5.6490    1.5970   -2.5790 n         1 MOL     -0.049307
    178 C54        -6.5700    1.8150   -3.7490 c3        1 MOL     -0.288587
    179 H86        -7.5790    2.0110   -3.3850 h1        1 MOL      0.117691
    180 H87        -6.2230    2.6690   -4.3310 h1        1 MOL      0.117691
    181 H88        -6.5780    0.9260   -4.3780 h1        1 MOL      0.117691
    182 H89        -5.6260    0.6700   -2.1760 hn        1 MOL      0.134082
    183 Ca1         1.7310   -0.8790    1.2910 Ca        1 MOL      1.779897
    184 O25         0.2090   -1.4010    3.4540 oh        1 MOL     -0.845620
    185 H90         0.0730   -2.2010    3.9650 ho        1 MOL      0.398103
    186 H91         0.0800   -0.6960    4.0870 ho        1 MOL      0.398103
    187 O26         0.9010   -3.4010    1.3670 oh        1 MOL     -0.845620
    188 H92         1.3490   -4.1430    0.9640 ho        1 MOL      0.398103
    189 H93         0.1980   -3.8070    1.8800 ho        1 MOL      0.398103
@<TRIPOS>BOND
     1    1    2 1   
     2    1    4 1   
     3    1    5 1   
     4    1    6 1   
     5    2    3 2   
     6    2    7 1   
     7    7    8 1   
     8    7   15 1   
     9    8    9 1   
    10    8   11 1   
    11    8   16 1   
    12    9   10 2   
    13    9   19 1   
    14   11   12 1   
    15   11   17 1   
    16   11   18 1   
    17   12   13 1   
    18   12   14 1   
    19   19   20 1   
    20   19   28 1   
    21   20   21 1   
    22   20   23 1   
    23   20   29 1   
    24   21   22 2   
    25   21   41 1   
    26   23   24 1   
    27   23   30 1   
    28   23   31 1   
    29   24   25 1   
    30   24   32 1   
    31   24   33 1   
    32   25   26 1   
    33   25   34 1   
    34   25   35 1   
    35   26   27 1   
    36   26   36 1   
    37   26   37 1   
    38   27   38 1   
    39   27   39 1   
    40   27   40 1   
    41   41   42 1   
    42   41   49 1   
    43   42   43 1   
    44   42   45 1   
    45   42   50 1   
    46   43   44 2   
    47   43   53 1   
    48   45   46 1   
    49   45   51 1   
    50   45   52 1   
    51   46   47 1   
    52   46   48 1   
    53   53   54 1   
    54   53   57 1   
    55   54   55 1   
    56   54   58 1   
    57   54   59 1   
    58   55   56 2   
    59   55   60 1   
    60   60   61 1   
    61   60   68 1   
    62   61   62 1   
    63   61   64 1   
    64   61   69 1   
    65   62   63 2   
    66   62   72 1   
    67   64   65 1   
    68   64   70 1   
    69   64   71 1   
    70   65   66 1   
    71   65   67 1   
    72   72   73 1   
    73   72   76 1   
    74   73   74 1   
    75   73   77 1   
    76   73   78 1   
    77   74   75 2   
    78   74   79 1   
    79   79   80 1   
    80   79   86 1   
    81   80   81 1   
    82   80   83 1   
    83   80   87 1   
    84   81   82 2   
    85   81   93 1   
    86   83   84 1   
    87   83   85 1   
    88   83   88 1   
    89   84   90 1   
    90   84   91 1   
    91   84   92 1   
    92   85   89 1   
    93   93   94 1   
    94   93  101 1   
    95   94   95 1   
    96   94   97 1   
    97   94  102 1   
    98   95   96 2   
    99   95  112 1   
   100   97   98 1   
   101   97   99 1   
   102   97  103 1   
   103   98  100 1   
   104   98  104 1   
   105   98  105 1   
   106   99  106 1   
   107   99  107 1   
   108   99  108 1   
   109  100  109 1   
   110  100  110 1   
   111  100  111 1   
   112  112  113 1   
   113  112  119 1   
   114  113  114 1   
   115  113  116 1   
   116  113  120 1   
   117  114  115 2   
   118  114  126 1   
   119  116  117 1   
   120  116  118 1   
   121  116  121 1   
   122  117  123 1   
   123  117  124 1   
   124  117  125 1   
   125  118  122 1   
   126  126  127 1   
   127  126  133 1   
   128  127  128 1   
   129  127  130 1   
   130  127  134 1   
   131  128  129 2   
   132  128  140 1   
   133  130  131 1   
   134  130  132 1   
   135  130  135 1   
   136  131  137 1   
   137  131  138 1   
   138  131  139 1   
   139  132  136 1   
   140  140  141 1   
   141  140  149 1   
   142  141  142 1   
   143  141  144 1   
   144  141  150 1   
   145  142  143 2   
   146  142  162 1   
   147  144  145 1   
   148  144  151 1   
   149  144  152 1   
   150  145  146 1   
   151  145  153 1   
   152  145  154 1   
   153  146  147 1   
   154  146  155 1   
   155  146  156 1   
   156  147  148 1   
   157  147  157 1   
   158  147  158 1   
   159  148  159 1   
   160  148  160 1   
   161  148  161 1   
   162  162  163 1   
   163  162  171 1   
   164  163  164 1   
   165  163  166 1   
   166  163  172 1   
   167  164  165 2   
   168  164  177 1   
   169  166  167 1   
   170  166  173 1   
   171  166  174 1   
   172  167  168 1   
   173  167  175 1   
   174  167  176 1   
   175  168  169 1   
   176  168  170 1   
   177  177  178 1   
   178  177  182 1   
   179  178  179 1   
   180  178  180 1   
   181  178  181 1   
   182  184  185 1   
   183  184  186 1   
   184  187  188 1   
   185  187  189 1   
@<TRIPOS>SUBSTRUCTURE
     1 MOL         1 TEMP              0 ****  ****    0 ROOT
