@<TRIPOS>MOLECULE
MOL
  189   185     1     0     0
SMALL
resp


@<TRIPOS>ATOM
      1 C1         -0.3140    2.5350   -5.5000 c3        1 MOL     -0.617091
      2 C2          0.1940    2.4360   -4.0970 c         1 MOL      0.756344
      3 O1         -0.6000    2.7300   -3.1710 o         1 MOL     -0.632108
      4 H1          0.5240    2.4780   -6.1940 hc        1 MOL      0.156719
      5 H2         -1.0040    1.7140   -5.6960 hc        1 MOL      0.156719
      6 H3         -0.8310    3.4850   -5.6330 hc        1 MOL      0.156719
      7 N1          1.3890    1.9330   -3.9420 n         1 MOL     -0.554134
      8 C3          1.9640    1.6460   -2.5680 c3        1 MOL      0.177987
      9 C4          2.3650    3.0330   -1.9010 c         1 MOL      0.282581
     10 O2          3.4210    3.5540   -2.2130 o         1 MOL     -0.510430
     11 C5          3.1530    0.7210   -2.7950 c3        1 MOL     -0.204706
     12 C6          3.9900    0.4350   -1.4790 c         1 MOL      0.766082
     13 O3          3.5420    0.7220   -0.3110 o         1 MOL     -0.673822
     14 O4          5.0990   -0.1080   -1.5680 o         1 MOL     -0.673822
     15 H4          2.0020    1.7480   -4.7310 hn        1 MOL      0.338041
     16 H5          1.4010    1.0580   -1.8470 h1        1 MOL     -0.022844
     17 H6          3.8110    1.1050   -3.5630 hc        1 MOL      0.041727
     18 H7          2.7560   -0.2240   -3.1690 hc        1 MOL      0.041727
     19 N2          1.5510    3.6270   -0.9940 n         1 MOL      0.078316
     20 C7          1.7270    5.0070   -0.4120 c3        1 MOL     -0.032822
     21 C8          2.8120    5.1310    0.7050 c         1 MOL      0.435838
     22 O5          3.1880    6.2780    0.9440 o         1 MOL     -0.550901
     23 C9          0.3800    5.5560    0.1940 c3        1 MOL     -0.153703
     24 C10        -0.7510    5.6180   -0.8990 c3        1 MOL      0.148384
     25 C11        -0.1990    6.1800   -2.2090 c3        1 MOL     -0.116605
     26 C12        -1.2500    7.0390   -2.9710 c3        1 MOL     -0.057172
     27 N3         -0.8330    7.3420   -4.3140 n4        1 MOL     -0.305775
     28 H8          0.6730    3.1610   -0.8070 hn        1 MOL      0.159424
     29 H9          2.0400    5.7220   -1.1640 h1        1 MOL      0.023352
     30 H10         0.5740    6.5840    0.4790 hc        1 MOL      0.061997
     31 H11         0.0900    4.8750    0.9870 hc        1 MOL      0.061997
     32 H12        -1.5180    6.2750   -0.5110 hc        1 MOL     -0.021162
     33 H13        -1.1610    4.6210   -1.0290 hc        1 MOL     -0.021162
     34 H14         0.4260    5.5170   -2.8040 hc        1 MOL      0.068721
     35 H15         0.5090    6.9270   -1.8570 hc        1 MOL      0.068721
     36 H16        -1.4700    7.9430   -2.4030 hx        1 MOL      0.106334
     37 H17        -2.1080    6.3720   -3.0930 hx        1 MOL      0.106334
     38 H18        -0.6690    6.4830   -4.8020 hn        1 MOL      0.317525
     39 H19        -1.5410    7.7780   -4.8970 hn        1 MOL      0.317525
     40 H20        -0.0220    7.9530   -4.2410 hn        1 MOL      0.317525
     41 N4          3.2110    4.0340    1.3740 n         1 MOL     -0.154055
     42 C13         4.2990    4.0090    2.3170 c3        1 MOL     -0.086575
     43 C14         5.5800    3.3770    1.8890 c         1 MOL      0.470117
     44 O6          6.6600    3.6190    2.4860 o         1 MOL     -0.540085
     45 C15         3.9040    3.4330    3.7140 c3        1 MOL     -0.058700
     46 C16         3.2340    2.0030    3.5650 c         1 MOL      0.567174
     47 O7          3.1360    1.3030    4.5810 o         1 MOL     -0.641516
     48 O8          2.9100    1.5890    2.4070 o         1 MOL     -0.641516
     49 H21         2.8510    3.1580    1.0220 hn        1 MOL      0.034392
     50 H22         4.5120    5.0480    2.5470 h1        1 MOL      0.097956
     51 H23         3.2340    4.0360    4.3320 hc        1 MOL      0.036656
     52 H24         4.7830    3.3920    4.3500 hc        1 MOL      0.036656
     53 N5          5.6240    2.5770    0.7550 n         1 MOL     -0.189388
     54 C17         6.8420    2.1160    0.0440 c3        1 MOL     -0.202266
     55 C18         7.3850    0.8420    0.7000 c         1 MOL      0.594468
     56 O9          8.5750    0.6200    0.8000 o         1 MOL     -0.565551
     57 H25         4.7490    2.2280    0.3990 hn        1 MOL      0.166136
     58 H26         7.5670    2.9230   -0.0240 h1        1 MOL      0.108894
     59 H27         6.5120    1.8930   -0.9740 h1        1 MOL      0.108894
     60 N6          6.4390   -0.0630    1.1340 n         1 MOL     -0.271212
     61 C19         6.7750   -1.3060    1.8710 c3        1 MOL     -0.195638
     62 C20         7.0900   -2.5210    0.9850 c         1 MOL      0.514720
     63 O10         7.6840   -3.4670    1.4440 o         1 MOL     -0.558621
     64 C21         5.7090   -1.6670    2.9280 c3        1 MOL     -0.097116
     65 C22         4.2850   -1.7880    2.4750 c         1 MOL      0.658803
     66 O11         3.9770   -1.9120    1.2680 o         1 MOL     -0.680621
     67 O12         3.3460   -1.7860    3.3440 o         1 MOL     -0.680621
     68 H28         5.4650    0.0960    0.9170 hn        1 MOL      0.191681
     69 H29         7.6870   -1.1390    2.4540 h1        1 MOL      0.148091
     70 H30         5.7670   -1.1650    3.8980 hc        1 MOL      0.068605
     71 H31         5.9910   -2.6280    3.3620 hc        1 MOL      0.068605
     72 N7          6.6840   -2.4500   -0.2890 n         1 MOL     -0.253374
     73 C23         6.8330   -3.5250   -1.2860 c3        1 MOL     -0.141165
     74 C24         5.6110   -4.3880   -1.3940 c         1 MOL      0.497924
     75 O13         5.6230   -5.4180   -2.0340 o         1 MOL     -0.581350
     76 H32         6.2500   -1.5650   -0.5030 hn        1 MOL      0.234622
     77 H33         7.7300   -4.1380   -1.2120 h1        1 MOL      0.106690
     78 H34         6.9080   -3.0380   -2.2620 h1        1 MOL      0.106690
     79 N8          4.4560   -3.9610   -0.8970 n         1 MOL     -0.187249
     80 C25         3.0950   -4.6100   -0.9880 c3        1 MOL     -0.071226
     81 C26         1.8990   -3.5590   -1.1250 c         1 MOL      0.502799
     82 O14         2.1080   -2.3990   -0.7440 o         1 MOL     -0.549026
     83 C27         2.6960   -5.4700    0.2600 c3        1 MOL      0.352882
     84 C28         3.2390   -6.9850    0.1520 c3        1 MOL     -0.497538
     85 O15         3.2140   -4.9560    1.4700 oh        1 MOL     -0.579394
     86 H35         4.4050   -3.0660   -0.4310 hn        1 MOL      0.191093
     87 H36         3.0450   -5.2380   -1.8830 h1        1 MOL      0.075716
     88 H37         1.6080   -5.4790    0.2930 h1        1 MOL      0.033580
     89 H38         4.1730   -5.0190    1.3940 ho        1 MOL      0.397782
     90 H39         2.6240   -7.6680    0.7370 hc        1 MOL      0.130642
     91 H40         3.2370   -7.2620   -0.8950 hc        1 MOL      0.130642
     92 H41         4.2570   -7.0400    0.5490 hc        1 MOL      0.130642
     93 N9          0.7650   -3.8670   -1.6970 n         1 MOL     -0.495786
     94 C29        -0.4250   -3.0640   -1.8680 c3        1 MOL      0.021706
     95 C30        -1.6140   -3.5740   -0.9980 c         1 MOL      0.535388
     96 O16        -2.1040   -4.6670   -1.2150 o         1 MOL     -0.550068
     97 C31        -0.8180   -2.7680   -3.3530 c3        1 MOL      0.255059
     98 C32         0.4440   -2.1430   -4.1820 c3        1 MOL      0.052485
     99 C33        -2.1630   -1.9680   -3.5820 c3        1 MOL     -0.494607
    100 C34         0.1990   -2.4460   -5.7050 c3        1 MOL     -0.324313
    101 H42         0.6210   -4.8210   -2.0050 hn        1 MOL      0.277650
    102 H43        -0.1520   -2.1010   -1.4330 h1        1 MOL      0.029415
    103 H44        -0.9470   -3.7510   -3.8010 hc        1 MOL     -0.017036
    104 H45         1.3670   -2.6060   -3.8270 hc        1 MOL      0.036542
    105 H46         0.4620   -1.0600   -4.0470 hc        1 MOL      0.036542
    106 H47        -2.1310   -1.5900   -4.6140 hc        1 MOL      0.111831
    107 H48        -2.9490   -2.7030   -3.4600 hc        1 MOL      0.111831
    108 H49        -2.3250   -1.1740   -2.8560 hc        1 MOL      0.111831
    109 H50        -0.7400   -2.0380   -6.0530 hc        1 MOL      0.078213
    110 H51         0.8600   -1.8450   -6.3320 hc        1 MOL      0.078213
    111 H52         0.3030   -3.5270   -5.8460 hc        1 MOL      0.078213
    112 N10        -2.1330   -2.7250   -0.0620 n         1 MOL     -0.258732
    113 C35        -3.3980   -2.9560    0.7150 c3        1 MOL     -0.103385
    114 C36        -4.7320   -2.6360   -0.0520 c         1 MOL      0.365962
    115 O17        -4.7090   -1.8920   -0.9740 o         1 MOL     -0.294346
    116 C37        -3.3360   -2.2510    2.0820 c3        1 MOL      0.420713
    117 C38        -2.0790   -2.6230    2.9120 c3        1 MOL     -0.251831
    118 O18        -3.3000   -0.8870    1.8670 oh        1 MOL     -0.657841
    119 H53        -1.7370   -1.7970    0.0410 hn        1 MOL      0.181302
    120 H54        -3.4240   -3.9920    1.0430 h1        1 MOL      0.069475
    121 H55        -4.1500   -2.5900    2.7250 h1        1 MOL     -0.025133
    122 H56        -2.4650   -0.6790    1.4400 ho        1 MOL      0.444987
    123 H57        -2.0380   -3.7010    3.0230 hc        1 MOL      0.063220
    124 H58        -1.2170   -2.2900    2.3400 hc        1 MOL      0.063220
    125 H59        -2.1440   -2.1620    3.9040 hc        1 MOL      0.063220
    126 N11        -5.8690   -3.2410    0.4110 n         1 MOL     -0.245414
    127 C39        -7.1400   -2.9120   -0.0700 c3        1 MOL     -0.071820
    128 C40        -7.4470   -1.4280   -0.1320 c         1 MOL      0.357618
    129 O19        -7.9610   -0.9870   -1.1270 o         1 MOL     -0.435425
    130 C41        -8.2160   -3.6050    0.7920 c3        1 MOL      0.390907
    131 C42        -9.5660   -3.5480    0.1600 c3        1 MOL     -0.496110
    132 O20        -7.9150   -5.0250    0.9570 oh        1 MOL     -0.613148
    133 H60        -5.8310   -3.8800    1.1980 hn        1 MOL      0.204515
    134 H61        -7.1900   -3.2490   -1.1030 h1        1 MOL      0.127983
    135 H62        -8.2660   -3.2100    1.8140 h1        1 MOL     -0.036012
    136 H63        -8.6280   -5.3420    1.5180 ho        1 MOL      0.396140
    137 H64        -9.5810   -3.9880   -0.8430 hc        1 MOL      0.137549
    138 H65       -10.2780   -4.0940    0.7840 hc        1 MOL      0.137549
    139 H66        -9.8720   -2.5100    0.0300 hc        1 MOL      0.137549
    140 N12        -7.1360   -0.6920    0.9680 n         1 MOL     -0.291085
    141 C43        -7.1970    0.7430    1.0820 c3        1 MOL     -0.103414
    142 C44        -6.1640    1.4660    0.1920 c         1 MOL      0.313286
    143 O21        -6.6140    2.4040   -0.5270 o         1 MOL     -0.497783
    144 C45        -7.0000    1.2220    2.5760 c3        1 MOL     -0.107195
    145 C46        -7.2150    2.6950    2.8440 c3        1 MOL     -0.055938
    146 C47        -6.8450    3.1140    4.3120 c3        1 MOL     -0.015036
    147 C48        -7.5790    2.2470    5.3550 c3        1 MOL      0.004095
    148 N13        -7.1460    2.6420    6.7130 n4        1 MOL     -0.164202
    149 H67        -6.6860   -1.1080    1.7740 hn        1 MOL      0.223348
    150 H68        -8.1580    0.9830    0.6350 h1        1 MOL      0.149615
    151 H69        -5.9770    1.0470    2.9150 hc        1 MOL      0.066547
    152 H70        -7.6080    0.5850    3.2180 hc        1 MOL      0.066547
    153 H71        -8.2790    2.9190    2.6950 hc        1 MOL      0.059414
    154 H72        -6.7110    3.3270    2.1110 hc        1 MOL      0.059414
    155 H73        -6.9960    4.1890    4.4320 hc        1 MOL      0.043215
    156 H74        -5.7930    2.8700    4.4710 hc        1 MOL      0.043215
    157 H75        -7.2920    1.2170    5.1690 hx        1 MOL      0.065524
    158 H76        -8.6470    2.4930    5.2510 hx        1 MOL      0.065524
    159 H77        -6.4860    3.4090    6.6860 hn        1 MOL      0.254603
    160 H78        -7.9720    2.8920    7.2280 hn        1 MOL      0.254603
    161 H79        -6.7540    1.9050    7.2750 hn        1 MOL      0.254603
    162 N14        -4.9540    0.9690   -0.0370 n         1 MOL     -0.029699
    163 C49        -4.0920    1.5360   -1.0840 c3        1 MOL     -0.089269
    164 C50        -4.6300    1.3240   -2.5200 c         1 MOL      0.428013
    165 O22        -4.6770    2.2220   -3.3230 o         1 MOL     -0.548236
    166 C51        -2.6910    0.9890   -0.9070 c3        1 MOL      0.204055
    167 C52        -2.0770    1.6660    0.2820 c3        1 MOL     -0.168922
    168 C53        -0.7860    0.9200    0.5610 c         1 MOL      0.654710
    169 O23         0.3140    1.5230    0.7140 o         1 MOL     -0.701635
    170 O24        -0.7740   -0.3570    0.6420 o         1 MOL     -0.701635
    171 H80        -4.6430    0.1100    0.4040 hn        1 MOL      0.032844
    172 H81        -4.0930    2.5980   -0.8450 h1        1 MOL      0.061557
    173 H82        -2.1520    1.2500   -1.8190 hc        1 MOL     -0.002461
    174 H83        -2.7550   -0.1020   -0.8580 hc        1 MOL     -0.002461
    175 H84        -2.7430    1.5730    1.1400 hc        1 MOL      0.031136
    176 H85        -1.9570    2.7430    0.1140 hc        1 MOL      0.031136
    177 N15        -5.1200    0.1260   -2.8640 n         1 MOL      0.034953
    178 C54        -5.6690   -0.2230   -4.1700 c3        1 MOL     -0.286680
    179 H86        -5.0230    0.1750   -4.9530 h1        1 MOL      0.099580
    180 H87        -5.7260   -1.3080   -4.2640 h1        1 MOL      0.099580
    181 H88        -6.6670    0.2030   -4.2710 h1        1 MOL      0.099580
    182 H89        -5.2870   -0.5490   -2.1390 hn        1 MOL      0.078967
    183 Ca1         1.8490   -0.4970    1.3330 Ca        1 MOL      1.740974
    184 O25         0.5750    0.2500    3.7620 oh        1 MOL     -0.845165
    185 H90         1.4320    0.4010    4.1590 ho        1 MOL      0.397848
    186 H91         0.1620    1.1090    3.7470 ho        1 MOL      0.397848
    187 O26         1.2060   -3.1090    1.9560 oh        1 MOL     -0.845165
    188 H92         2.0340   -3.5940    1.9270 ho        1 MOL      0.397848
    189 H93         0.6790   -3.5640    2.6130 ho        1 MOL      0.397848
@<TRIPOS>BOND
     1    1    2 1   
     2    1    4 1   
     3    1    5 1   
     4    1    6 1   
     5    2    3 2   
     6    2    7 1   
     7    7    8 1   
     8    7   15 1   
     9    8    9 1   
    10    8   11 1   
    11    8   16 1   
    12    9   10 2   
    13    9   19 1   
    14   11   12 1   
    15   11   17 1   
    16   11   18 1   
    17   12   13 1   
    18   12   14 1   
    19   19   20 1   
    20   19   28 1   
    21   20   21 1   
    22   20   23 1   
    23   20   29 1   
    24   21   22 2   
    25   21   41 1   
    26   23   24 1   
    27   23   30 1   
    28   23   31 1   
    29   24   25 1   
    30   24   32 1   
    31   24   33 1   
    32   25   26 1   
    33   25   34 1   
    34   25   35 1   
    35   26   27 1   
    36   26   36 1   
    37   26   37 1   
    38   27   38 1   
    39   27   39 1   
    40   27   40 1   
    41   41   42 1   
    42   41   49 1   
    43   42   43 1   
    44   42   45 1   
    45   42   50 1   
    46   43   44 2   
    47   43   53 1   
    48   45   46 1   
    49   45   51 1   
    50   45   52 1   
    51   46   47 1   
    52   46   48 1   
    53   53   54 1   
    54   53   57 1   
    55   54   55 1   
    56   54   58 1   
    57   54   59 1   
    58   55   56 2   
    59   55   60 1   
    60   60   61 1   
    61   60   68 1   
    62   61   62 1   
    63   61   64 1   
    64   61   69 1   
    65   62   63 2   
    66   62   72 1   
    67   64   65 1   
    68   64   70 1   
    69   64   71 1   
    70   65   66 1   
    71   65   67 1   
    72   72   73 1   
    73   72   76 1   
    74   73   74 1   
    75   73   77 1   
    76   73   78 1   
    77   74   75 2   
    78   74   79 1   
    79   79   80 1   
    80   79   86 1   
    81   80   81 1   
    82   80   83 1   
    83   80   87 1   
    84   81   82 2   
    85   81   93 1   
    86   83   84 1   
    87   83   85 1   
    88   83   88 1   
    89   84   90 1   
    90   84   91 1   
    91   84   92 1   
    92   85   89 1   
    93   93   94 1   
    94   93  101 1   
    95   94   95 1   
    96   94   97 1   
    97   94  102 1   
    98   95   96 2   
    99   95  112 1   
   100   97   98 1   
   101   97   99 1   
   102   97  103 1   
   103   98  100 1   
   104   98  104 1   
   105   98  105 1   
   106   99  106 1   
   107   99  107 1   
   108   99  108 1   
   109  100  109 1   
   110  100  110 1   
   111  100  111 1   
   112  112  113 1   
   113  112  119 1   
   114  113  114 1   
   115  113  116 1   
   116  113  120 1   
   117  114  115 2   
   118  114  126 1   
   119  116  117 1   
   120  116  118 1   
   121  116  121 1   
   122  117  123 1   
   123  117  124 1   
   124  117  125 1   
   125  118  122 1   
   126  126  127 1   
   127  126  133 1   
   128  127  128 1   
   129  127  130 1   
   130  127  134 1   
   131  128  129 2   
   132  128  140 1   
   133  130  131 1   
   134  130  132 1   
   135  130  135 1   
   136  131  137 1   
   137  131  138 1   
   138  131  139 1   
   139  132  136 1   
   140  140  141 1   
   141  140  149 1   
   142  141  142 1   
   143  141  144 1   
   144  141  150 1   
   145  142  143 2   
   146  142  162 1   
   147  144  145 1   
   148  144  151 1   
   149  144  152 1   
   150  145  146 1   
   151  145  153 1   
   152  145  154 1   
   153  146  147 1   
   154  146  155 1   
   155  146  156 1   
   156  147  148 1   
   157  147  157 1   
   158  147  158 1   
   159  148  159 1   
   160  148  160 1   
   161  148  161 1   
   162  162  163 1   
   163  162  171 1   
   164  163  164 1   
   165  163  166 1   
   166  163  172 1   
   167  164  165 2   
   168  164  177 1   
   169  166  167 1   
   170  166  173 1   
   171  166  174 1   
   172  167  168 1   
   173  167  175 1   
   174  167  176 1   
   175  168  169 1   
   176  168  170 1   
   177  177  178 1   
   178  177  182 1   
   179  178  179 1   
   180  178  180 1   
   181  178  181 1   
   182  184  185 1   
   183  184  186 1   
   184  187  188 1   
   185  187  189 1   
@<TRIPOS>SUBSTRUCTURE
     1 MOL         1 TEMP              0 ****  ****    0 ROOT
