@<TRIPOS>MOLECULE
MOL
  189   185     1     0     0
SMALL
resp


@<TRIPOS>ATOM
      1 C1          1.7390   -3.5250    6.2310 c3        1 MOL     -0.502271
      2 C2          1.7440   -3.1530    4.7400 c         1 MOL      0.686757
      3 O1          1.2020   -2.1200    4.2890 o         1 MOL     -0.543448
      4 H1          1.9300   -2.6330    6.8270 hc        1 MOL      0.131954
      5 H2          0.7680   -3.9400    6.5000 hc        1 MOL      0.131954
      6 H3          2.5170   -4.2630    6.4240 hc        1 MOL      0.131954
      7 N1          2.2790   -4.0210    3.9260 n         1 MOL     -0.496562
      8 C3          2.8570   -3.6480    2.5940 c3        1 MOL      0.157489
      9 C4          2.8570   -4.8230    1.5940 c         1 MOL      0.444676
     10 O2          3.3760   -5.9370    1.8850 o         1 MOL     -0.575788
     11 C5          4.2320   -3.1460    2.6870 c3        1 MOL     -0.182525
     12 C6          4.8850   -2.5710    1.4440 c         1 MOL      0.769238
     13 O3          4.1650   -2.2400    0.4900 o         1 MOL     -0.701701
     14 O4          6.1410   -2.4330    1.3920 o         1 MOL     -0.701701
     15 H4          2.6380   -4.9020    4.2580 hn        1 MOL      0.288400
     16 H5          2.2380   -2.8550    2.1700 h1        1 MOL     -0.070083
     17 H6          4.8830   -3.9580    2.9920 hc        1 MOL      0.011502
     18 H7          4.3160   -2.3960    3.4720 hc        1 MOL      0.011502
     19 N2          2.3930   -4.6010    0.3570 n         1 MOL     -0.103198
     20 C7          2.3680   -5.6860   -0.7090 c3        1 MOL     -0.181788
     21 C8          2.9970   -5.2760   -1.9530 c         1 MOL      0.518696
     22 O5          2.9750   -5.9880   -2.9950 o         1 MOL     -0.596902
     23 C9          0.9140   -6.1620   -1.0690 c3        1 MOL      0.087000
     24 C10         0.1150   -5.1310   -1.9140 c3        1 MOL      0.003743
     25 C11         0.2100   -6.4070    0.2900 c3        1 MOL     -0.097723
     26 C12        -1.3440   -5.5030   -2.1520 c3        1 MOL     -0.362140
     27 H8          2.0240   -3.7080    0.0640 hn        1 MOL      0.244039
     28 H9          2.9460   -6.5130   -0.2970 h1        1 MOL      0.132916
     29 H10         0.9490   -7.1290   -1.5660 hc        1 MOL      0.013066
     30 H11         0.4530   -5.0700   -2.9510 hc        1 MOL      0.065531
     31 H12         0.2220   -4.1310   -1.4960 hc        1 MOL      0.065531
     32 H13        -0.1350   -5.4760    0.7280 hc        1 MOL      0.009022
     33 H14        -0.6950   -6.9280    0.0100 hc        1 MOL      0.009022
     34 H15         0.7990   -6.9730    1.0180 hc        1 MOL      0.009022
     35 H16        -1.7050   -4.8060   -2.9020 hc        1 MOL      0.090982
     36 H17        -1.4000   -6.5000   -2.5850 hc        1 MOL      0.090982
     37 H18        -1.8920   -5.3620   -1.2240 hc        1 MOL      0.090982
     38 N3          3.7190   -4.1410   -1.9990 n         1 MOL     -0.422384
     39 C13         4.2410   -3.5050   -3.2520 c3        1 MOL      0.011763
     40 C14         5.5990   -2.6980   -3.0350 c         1 MOL      0.415953
     41 O6          6.2750   -2.4330   -4.0660 o         1 MOL     -0.579320
     42 C15         3.2070   -2.6350   -3.9890 c3        1 MOL     -0.079291
     43 C16         2.8080   -1.4700   -3.2330 c         1 MOL      0.686805
     44 O7          3.0910   -1.3430   -2.0280 o         1 MOL     -0.717503
     45 O8          2.0830   -0.5670   -3.8080 o         1 MOL     -0.717503
     46 H19         3.7240   -3.5660   -1.1610 hn        1 MOL      0.226237
     47 H20         4.5050   -4.2090   -4.0380 h1        1 MOL      0.093881
     48 H21         2.3420   -3.2030   -4.3210 hc        1 MOL      0.051014
     49 H22         3.5620   -2.3830   -4.9910 hc        1 MOL      0.051014
     50 N4          5.9420   -2.3420   -1.8210 n         1 MOL     -0.191078
     51 C17         7.1640   -1.6220   -1.5280 c3        1 MOL     -0.187663
     52 C18         7.1650   -0.1550   -1.8430 c         1 MOL      0.499354
     53 O9          8.2720    0.4230   -1.8960 o         1 MOL     -0.623088
     54 H23         5.1940   -2.4200   -1.1450 hn        1 MOL      0.182918
     55 H24         8.0640   -2.0720   -1.9310 h1        1 MOL      0.111818
     56 H25         7.2500   -1.5930   -0.4460 h1        1 MOL      0.111818
     57 N5          6.0230    0.4560   -2.1500 n         1 MOL     -0.006242
     58 C19         6.1220    1.7720   -2.8930 c3        1 MOL     -0.123189
     59 C20         6.5250    2.9140   -1.8830 c         1 MOL      0.478494
     60 O10         7.1440    3.8910   -2.3290 o         1 MOL     -0.565580
     61 C21         4.7760    2.0700   -3.5110 c3        1 MOL     -0.183619
     62 C22         3.6110    2.2370   -2.5060 c         1 MOL      0.726488
     63 O11         3.6160    1.6380   -1.3930 o         1 MOL     -0.708234
     64 O12         2.6480    2.9960   -2.7650 o         1 MOL     -0.708234
     65 H26         5.1080    0.0460   -2.0770 hn        1 MOL      0.074806
     66 H27         6.8750    1.6550   -3.6680 h1        1 MOL      0.109824
     67 H28         4.4620    1.2310   -4.1350 hc        1 MOL      0.064291
     68 H29         4.7710    2.9370   -4.1680 hc        1 MOL      0.064291
     69 N6          6.3310    2.6430   -0.6000 n         1 MOL     -0.144927
     70 C23         6.6110    3.4520    0.5670 c3        1 MOL     -0.297695
     71 C24         5.4170    4.1950    1.1190 c         1 MOL      0.532702
     72 O13         5.4880    4.8970    2.1480 o         1 MOL     -0.605799
     73 H30         5.9520    1.7220   -0.3830 hn        1 MOL      0.196899
     74 H31         7.3420    4.1910    0.2640 h1        1 MOL      0.123878
     75 H32         6.9910    2.8080    1.3640 h1        1 MOL      0.123878
     76 N7          4.1940    3.9420    0.6350 n         1 MOL     -0.223541
     77 C25         3.0360    4.4890    1.3650 c3        1 MOL      0.007217
     78 C26         1.9880    3.3810    1.3940 c         1 MOL      0.472324
     79 O14         1.8630    2.5540    0.5380 o         1 MOL     -0.494372
     80 C27         2.4560    5.6900    0.6240 c3        1 MOL      0.090821
     81 C28         3.4570    6.8490    0.3880 c3        1 MOL     -0.284697
     82 C29         2.7810    8.0390   -0.3660 c         1 MOL      0.627962
     83 N8          2.2760    7.8900   -1.6110 n         1 MOL     -0.828031
     84 O15         2.5540    9.1290    0.1910 o         1 MOL     -0.587087
     85 H33         4.0290    3.2680   -0.1010 hn        1 MOL      0.163963
     86 H34         3.2410    4.7490    2.4120 h1        1 MOL      0.069227
     87 H35         1.6160    6.1400    1.1490 hc        1 MOL      0.031288
     88 H36         2.0330    5.2540   -0.2810 hc        1 MOL      0.031288
     89 H37         4.2540    6.5590   -0.2870 hc        1 MOL      0.099933
     90 H38         3.7430    7.2550    1.3600 hc        1 MOL      0.099933
     91 H39         2.4450    7.0420   -2.1440 hn        1 MOL      0.380318
     92 H40         1.7570    8.6990   -1.9140 hn        1 MOL      0.380318
     93 N9          1.1940    3.3220    2.4690 n         1 MOL     -0.565561
     94 C30         0.0870    2.3920    2.7370 c3        1 MOL     -0.027992
     95 C31        -0.9610    2.8120    1.8930 c         1 MOL      0.599931
     96 O16        -1.4780    3.9370    2.0040 o         1 MOL     -0.645729
     97 C32        -0.2910    2.3740    4.1900 c3        1 MOL      0.170007
     98 C33        -1.6120    1.6720    4.4490 c3        1 MOL     -0.112090
     99 C34         0.9380    1.6110    4.8210 c3        1 MOL     -0.112090
    100 H41         1.2510    4.0990    3.1140 hn        1 MOL      0.288235
    101 H42         0.3760    1.4050    2.3940 h1        1 MOL      0.202783
    102 H43        -0.3080    3.3960    4.5910 hc        1 MOL     -0.006246
    103 H44        -2.3730    2.3750    4.1140 hc        1 MOL      0.009635
    104 H45        -1.6650    0.7100    3.9230 hc        1 MOL      0.009635
    105 H46        -1.8130    1.5010    5.5090 hc        1 MOL      0.009635
    106 H47         0.8480    1.8650    5.8790 hc        1 MOL      0.009635
    107 H48         0.7950    0.5420    4.6390 hc        1 MOL      0.009635
    108 H49         1.9370    1.9850    4.6240 hc        1 MOL      0.009635
    109 N10        -1.4010    2.0270    0.9090 n         1 MOL     -0.127230
    110 C35        -2.5950    2.2130    0.1360 c3        1 MOL      0.068596
    111 C36        -3.8470    1.8630    0.9040 c         1 MOL      0.272076
    112 O17        -3.8150    1.1210    1.8710 o         1 MOL     -0.391239
    113 C37        -2.5470    1.3670   -1.1670 c3        1 MOL     -0.201221
    114 C38        -3.7130    1.6380   -2.0560 c         1 MOL      0.740880
    115 N11        -3.9570    2.8510   -2.4370 n         1 MOL     -0.807530
    116 O18        -4.5350    0.7320   -2.2700 o         1 MOL     -0.578813
    117 H50        -0.8640    1.1770    0.8180 hn        1 MOL      0.041215
    118 H51        -2.6020    3.2640   -0.1690 h1        1 MOL      0.013730
    119 H52        -2.5180    0.3440   -0.7970 hc        1 MOL      0.077696
    120 H53        -1.6530    1.4530   -1.7840 hc        1 MOL      0.077696
    121 H54        -3.3200    3.5820   -2.1460 hn        1 MOL      0.365550
    122 H55        -4.7950    3.0000   -2.9750 hn        1 MOL      0.365550
    123 N12        -5.0210    2.3780    0.4300 n         1 MOL     -0.194701
    124 C39        -6.3650    2.1090    1.0840 c3        1 MOL      0.117323
    125 C40        -6.7520    0.6190    1.0230 c         1 MOL      0.428324
    126 O19        -7.4090    0.1110    2.0040 o         1 MOL     -0.550394
    127 C41        -7.3840    3.1400    0.5570 c3        1 MOL     -0.135296
    128 C42        -7.9780    2.6820   -0.8280 ca        1 MOL      0.112482
    129 C43        -9.1280    1.9070   -0.9120 ca        1 MOL     -0.246463
    130 C44        -7.3360    3.1230   -2.0250 ca        1 MOL     -0.246463
    131 C45        -9.6990    1.5830   -2.1630 ca        1 MOL     -0.220510
    132 C46        -7.7720    2.7130   -3.2480 ca        1 MOL     -0.220510
    133 C47        -8.9580    1.9910   -3.3180 ca        1 MOL      0.238977
    134 O20        -9.3370    1.5720   -4.5410 oh        1 MOL     -0.452496
    135 H56        -5.0260    3.2000   -0.1440 hn        1 MOL      0.174233
    136 H57        -6.3370    2.3540    2.1450 h1        1 MOL      0.053114
    137 H58        -6.7670    4.0260    0.5150 hc        1 MOL      0.040126
    138 H59        -8.2180    3.2760    1.2460 hc        1 MOL      0.040126
    139 H60        -9.7000    1.5290   -0.0730 ha        1 MOL      0.150277
    140 H61        -6.5300    3.8390   -1.9670 ha        1 MOL      0.150277
    141 H62       -10.6120    1.0180   -2.2120 ha        1 MOL      0.161456
    142 H63        -7.2430    3.0600   -4.1220 ha        1 MOL      0.161456
    143 H64       -10.2430    1.2660   -4.5240 ho        1 MOL      0.367897
    144 N13        -6.4200   -0.1760   -0.0290 n         1 MOL     -0.159658
    145 C48        -6.5430   -1.6360   -0.0850 c3        1 MOL     -0.293460
    146 C49        -5.4760   -2.3740    0.7040 c         1 MOL      0.454663
    147 O21        -5.5000   -3.5700    0.9070 o         1 MOL     -0.538344
    148 C50        -6.6030   -2.0880   -1.5830 c3        1 MOL     -0.007701
    149 C51        -7.8060   -1.6330   -2.3420 c3        1 MOL     -0.130361
    150 C52        -7.9890   -2.3780   -3.6400 c         1 MOL      0.688304
    151 O22        -7.5270   -1.8490   -4.6780 o         1 MOL     -0.742014
    152 O23        -8.5060   -3.4930   -3.6010 o         1 MOL     -0.742014
    153 H65        -6.0570    0.2910   -0.8400 hn        1 MOL      0.268330
    154 H66        -7.4840   -1.8850    0.4100 h1        1 MOL      0.148725
    155 H67        -6.4230   -3.1660   -1.6390 hc        1 MOL      0.074738
    156 H68        -5.7610   -1.6110   -2.0760 hc        1 MOL      0.074738
    157 H69        -7.6890   -0.6100   -2.6870 hc        1 MOL      0.022575
    158 H70        -8.7320   -1.8190   -1.7900 hc        1 MOL      0.022575
    159 N14        -4.5860   -1.5960    1.3590 n         1 MOL     -0.073094
    160 C53        -3.6450   -2.0750    2.4330 c3        1 MOL     -0.126882
    161 C54        -4.0650   -1.6340    3.8750 c         1 MOL      0.382140
    162 O24        -3.4160   -2.0460    4.8710 o         1 MOL     -0.537766
    163 C55        -2.2220   -1.7460    2.1260 c3        1 MOL      0.061830
    164 C56        -1.6050   -2.2070    0.8060 c3        1 MOL     -0.353672
    165 C57        -0.2010   -1.6160    0.6810 c         1 MOL      0.868831
    166 O25        -0.0460   -0.3890    0.7030 o         1 MOL     -0.766608
    167 O26         0.8200   -2.2760    0.3620 o         1 MOL     -0.766608
    168 H71        -4.6290   -0.5970    1.2390 hn        1 MOL      0.006858
    169 H72        -3.7060   -3.1650    2.4820 h1        1 MOL      0.112931
    170 H73        -1.5910   -2.1220    2.9320 hc        1 MOL      0.059802
    171 H74        -2.2240   -0.6510    2.0900 hc        1 MOL      0.059802
    172 H75        -2.2570   -1.8160    0.0180 hc        1 MOL      0.111206
    173 H76        -1.5610   -3.2920    0.8460 hc        1 MOL      0.111206
    174 N15        -5.1660   -0.8820    3.9530 n         1 MOL     -0.120542
    175 C58        -5.7140   -0.3190    5.2200 c3        1 MOL     -0.123991
    176 H77        -5.4420    0.7340    5.2960 h1        1 MOL      0.063002
    177 H78        -6.7990   -0.4150    5.2220 h1        1 MOL      0.063002
    178 H79        -5.2980   -0.8620    6.0690 h1        1 MOL      0.063002
    179 H80        -5.6630   -0.5580    3.1360 hn        1 MOL      0.156901
    180 Ca1         2.4110   -0.1340    0.0530 Ca        1 MOL      1.767814
    181 O27         2.5530   -0.2740    2.7090 oh        1 MOL     -0.817047
    182 H81         2.0150   -0.9470    3.1230 ho        1 MOL      0.400310
    183 H82         3.2960   -0.1600    3.3000 ho        1 MOL      0.400310
    184 O28         5.2010    0.6140    1.4220 oh        1 MOL     -0.817047
    185 H83         4.8740    0.7150    2.3170 ho        1 MOL      0.400310
    186 H84         6.1430    0.4880    1.5180 ho        1 MOL      0.400310
    187 O29         0.8920    0.9010   -2.0500 oh        1 MOL     -0.817047
    188 H85         1.2790    1.7790   -2.1720 ho        1 MOL      0.400310
    189 H86         1.2820    0.3700   -2.7490 ho        1 MOL      0.400310
@<TRIPOS>BOND
     1    1    2 1   
     2    1    4 1   
     3    1    5 1   
     4    1    6 1   
     5    2    3 2   
     6    2    7 1   
     7    7    8 1   
     8    7   15 1   
     9    8    9 1   
    10    8   11 1   
    11    8   16 1   
    12    9   10 2   
    13    9   19 1   
    14   11   12 1   
    15   11   17 1   
    16   11   18 1   
    17   12   13 1   
    18   12   14 1   
    19   19   20 1   
    20   19   27 1   
    21   20   21 1   
    22   20   23 1   
    23   20   28 1   
    24   21   22 2   
    25   21   38 1   
    26   23   24 1   
    27   23   25 1   
    28   23   29 1   
    29   24   26 1   
    30   24   30 1   
    31   24   31 1   
    32   25   32 1   
    33   25   33 1   
    34   25   34 1   
    35   26   35 1   
    36   26   36 1   
    37   26   37 1   
    38   38   39 1   
    39   38   46 1   
    40   39   40 1   
    41   39   42 1   
    42   39   47 1   
    43   40   41 2   
    44   40   50 1   
    45   42   43 1   
    46   42   48 1   
    47   42   49 1   
    48   43   44 1   
    49   43   45 1   
    50   50   51 1   
    51   50   54 1   
    52   51   52 1   
    53   51   55 1   
    54   51   56 1   
    55   52   53 2   
    56   52   57 1   
    57   57   58 1   
    58   57   65 1   
    59   58   59 1   
    60   58   61 1   
    61   58   66 1   
    62   59   60 2   
    63   59   69 1   
    64   61   62 1   
    65   61   67 1   
    66   61   68 1   
    67   62   63 1   
    68   62   64 1   
    69   69   70 1   
    70   69   73 1   
    71   70   71 1   
    72   70   74 1   
    73   70   75 1   
    74   71   72 2   
    75   71   76 1   
    76   76   77 1   
    77   76   85 1   
    78   77   78 1   
    79   77   80 1   
    80   77   86 1   
    81   78   79 2   
    82   78   93 1   
    83   80   81 1   
    84   80   87 1   
    85   80   88 1   
    86   81   82 1   
    87   81   89 1   
    88   81   90 1   
    89   82   83 1   
    90   82   84 2   
    91   83   91 1   
    92   83   92 1   
    93   93   94 1   
    94   93  100 1   
    95   94   95 1   
    96   94   97 1   
    97   94  101 1   
    98   95   96 2   
    99   95  109 1   
   100   97   98 1   
   101   97   99 1   
   102   97  102 1   
   103   98  103 1   
   104   98  104 1   
   105   98  105 1   
   106   99  106 1   
   107   99  107 1   
   108   99  108 1   
   109  109  110 1   
   110  109  117 1   
   111  110  111 1   
   112  110  113 1   
   113  110  118 1   
   114  111  112 2   
   115  111  123 1   
   116  113  114 1   
   117  113  119 1   
   118  113  120 1   
   119  114  115 1   
   120  114  116 2   
   121  115  121 1   
   122  115  122 1   
   123  123  124 1   
   124  123  135 1   
   125  124  125 1   
   126  124  127 1   
   127  124  136 1   
   128  125  126 2   
   129  125  144 1   
   130  127  128 1   
   131  127  137 1   
   132  127  138 1   
   133  128  129 ar  
   134  128  130 ar  
   135  129  131 ar  
   136  129  139 1   
   137  130  132 ar  
   138  130  140 1   
   139  131  133 ar  
   140  131  141 1   
   141  132  133 ar  
   142  132  142 1   
   143  133  134 1   
   144  134  143 1   
   145  144  145 1   
   146  144  153 1   
   147  145  146 1   
   148  145  148 1   
   149  145  154 1   
   150  146  147 2   
   151  146  159 1   
   152  148  149 1   
   153  148  155 1   
   154  148  156 1   
   155  149  150 1   
   156  149  157 1   
   157  149  158 1   
   158  150  151 1   
   159  150  152 1   
   160  159  160 1   
   161  159  168 1   
   162  160  161 1   
   163  160  163 1   
   164  160  169 1   
   165  161  162 2   
   166  161  174 1   
   167  163  164 1   
   168  163  170 1   
   169  163  171 1   
   170  164  165 1   
   171  164  172 1   
   172  164  173 1   
   173  165  166 1   
   174  165  167 1   
   175  174  175 1   
   176  174  179 1   
   177  175  176 1   
   178  175  177 1   
   179  175  178 1   
   180  181  182 1   
   181  181  183 1   
   182  184  185 1   
   183  184  186 1   
   184  187  188 1   
   185  187  189 1   
@<TRIPOS>SUBSTRUCTURE
     1 MOL         1 TEMP              0 ****  ****    0 ROOT
