@<TRIPOS>MOLECULE
MOL
  186   183     1     0     0
SMALL
resp


@<TRIPOS>ATOM
      1 C1         -0.0360    1.8380    5.9690 c3        1 MOL     -0.213103
      2 C2         -0.5790    1.8470    4.4770 c         1 MOL      0.740178
      3 O1          0.1590    2.1780    3.5930 o         1 MOL     -0.594092
      4 H1          0.8260    2.5010    6.0460 hc        1 MOL      0.054794
      5 H2         -0.8190    2.1810    6.6440 hc        1 MOL      0.054794
      6 H3          0.2620    0.8260    6.2410 hc        1 MOL      0.054794
      7 N1         -1.8050    1.3240    4.2610 n         1 MOL     -0.713653
      8 C3         -2.4740    1.2160    2.9410 c3        1 MOL      0.399698
      9 C4         -2.8220    2.6240    2.4340 c         1 MOL      0.481284
     10 O2         -3.8410    3.2160    2.6440 o         1 MOL     -0.557334
     11 C5         -3.6520    0.2840    2.9050 c3        1 MOL     -0.468368
     12 C6         -4.2660    0.1210    1.4970 c         1 MOL      0.671141
     13 O3         -3.7550    0.6110    0.4620 o         1 MOL     -0.559205
     14 O4         -5.3090   -0.5460    1.3580 o         1 MOL     -0.559205
     15 H4         -2.3580    1.1520    5.0970 hn        1 MOL      0.345764
     16 H5         -1.7410    0.8670    2.2210 h1        1 MOL     -0.013654
     17 H6         -4.3790    0.5660    3.6670 hc        1 MOL      0.119431
     18 H7         -3.1410   -0.6460    3.1550 hc        1 MOL      0.119431
     19 N2         -1.7860    3.3590    1.9650 n         1 MOL     -0.147922
     20 C7         -1.8810    4.8100    1.8500 c3        1 MOL     -0.130658
     21 C8         -2.5840    5.1470    0.4670 c         1 MOL      0.507014
     22 O5         -2.4850    6.2260   -0.1150 o         1 MOL     -0.558411
     23 C9         -0.4950    5.4590    2.1030 c3        1 MOL     -0.340449
     24 C10         0.5270    4.9850    1.0420 c3        1 MOL      0.248521
     25 C11         1.7370    5.9400    1.0650 c3        1 MOL     -0.012361
     26 C12         2.7110    5.5430   -0.0620 c3        1 MOL     -0.114164
     27 N3          2.2440    5.7190   -1.4380 n4        1 MOL     -0.243771
     28 H8         -0.8790    2.9290    1.8750 hn        1 MOL      0.139956
     29 H9         -2.5490    5.1840    2.6240 h1        1 MOL      0.142046
     30 H10        -0.2270    5.1400    3.1190 hc        1 MOL      0.116080
     31 H11        -0.6810    6.5200    2.0120 hc        1 MOL      0.116080
     32 H12         0.1810    5.0840    0.0100 hc        1 MOL     -0.011396
     33 H13         0.7310    3.9460    1.2940 hc        1 MOL     -0.011396
     34 H14         2.2150    5.9900    2.0440 hc        1 MOL      0.038811
     35 H15         1.4470    6.9810    0.9040 hc        1 MOL      0.038811
     36 H16         3.1090    4.5660    0.1860 hx        1 MOL      0.096489
     37 H17         3.6070    6.1660   -0.0430 hx        1 MOL      0.096489
     38 H18         1.6290    5.0510   -1.8840 hn        1 MOL      0.295885
     39 H19         1.7510    6.5930   -1.5480 hn        1 MOL      0.295885
     40 H20         3.0550    5.7660   -2.0440 hn        1 MOL      0.295885
     41 N4         -3.2410    4.1620   -0.1200 n         1 MOL     -0.129220
     42 C13        -4.2570    4.3840   -1.1840 c3        1 MOL     -0.132802
     43 C14        -5.5720    3.7020   -1.1280 c         1 MOL      0.649232
     44 O6         -6.4560    4.0060   -1.9250 o         1 MOL     -0.521223
     45 C15        -3.5550    4.0270   -2.5310 c3        1 MOL     -0.118298
     46 C16        -3.0330    2.5730   -2.5440 c         1 MOL      0.763108
     47 O7         -1.7880    2.2930   -2.6070 o         1 MOL     -0.769433
     48 O8         -3.9210    1.6350   -2.4810 o         1 MOL     -0.769433
     49 H21        -3.2270    3.2840    0.3770 hn        1 MOL     -0.096233
     50 H22        -4.5660    5.4280   -1.1930 h1        1 MOL      0.102089
     51 H23        -2.7020    4.6750   -2.7450 hc        1 MOL      0.030334
     52 H24        -4.3120    4.1170   -3.3150 hc        1 MOL      0.030334
     53 N5         -5.8970    2.8700   -0.0900 n         1 MOL     -0.430516
     54 C17        -7.1230    2.1010    0.0430 c3        1 MOL     -0.073067
     55 C18        -7.3240    1.1030   -1.0980 c         1 MOL      0.540336
     56 O9         -8.3230    1.2840   -1.8020 o         1 MOL     -0.554127
     57 H25        -5.1170    2.4980    0.4480 hn        1 MOL      0.349433
     58 H26        -7.9930    2.7470   -0.0240 h1        1 MOL      0.059713
     59 H27        -6.9910    1.5410    0.9720 h1        1 MOL      0.059713
     60 N6         -6.5940    0.0270   -1.2630 n         1 MOL     -0.215664
     61 C19        -6.9000   -1.0980   -2.1400 c3        1 MOL      0.026739
     62 C20        -6.9480   -2.4610   -1.4060 c         1 MOL      0.405340
     63 O10        -7.4840   -3.3980   -2.0640 o         1 MOL     -0.527789
     64 C21        -5.9060   -1.1820   -3.3230 c3        1 MOL     -0.146219
     65 C22        -4.4330   -1.3440   -2.9910 c         1 MOL      0.729901
     66 O11        -3.5880   -0.9540   -3.8730 o         1 MOL     -0.686744
     67 O12        -4.0660   -1.8010   -1.9170 o         1 MOL     -0.686744
     68 H28        -5.8260   -0.0390   -0.6040 hn        1 MOL      0.226328
     69 H29        -7.9360   -1.0070   -2.4790 h1        1 MOL      0.076462
     70 H30        -6.0040   -0.3030   -3.9660 hc        1 MOL      0.056871
     71 H31        -6.2320   -2.0080   -3.9550 hc        1 MOL      0.056871
     72 N7         -6.5500   -2.4950   -0.1570 n         1 MOL     -0.123211
     73 C23        -6.5230   -3.6820    0.7130 c3        1 MOL     -0.199550
     74 C24        -5.1850   -4.5040    0.7290 c         1 MOL      0.543463
     75 O13        -5.1560   -5.6700    1.1030 o         1 MOL     -0.567455
     76 H32        -5.8900   -1.8310    0.2180 hn        1 MOL     -0.045951
     77 H33        -7.3430   -4.2900    0.3460 h1        1 MOL      0.110415
     78 H34        -6.5890   -3.3200    1.7390 h1        1 MOL      0.110415
     79 N8         -4.0550   -3.8850    0.3520 n         1 MOL     -0.173522
     80 C25        -2.7880   -4.5190    0.2220 c3        1 MOL     -0.338053
     81 C26        -1.7140   -3.5000    0.5350 c         1 MOL      0.715252
     82 O14        -1.9540   -2.3390    0.2190 o         1 MOL     -0.684866
     83 C27        -2.4130   -5.0280   -1.1590 c3        1 MOL      0.441013
     84 C28        -3.1890   -6.3240   -1.6060 c3        1 MOL     -0.286435
     85 O15        -2.5400   -4.0450   -2.1890 oh        1 MOL     -0.639681
     86 H35        -4.1510   -2.9210    0.0650 hn        1 MOL      0.271715
     87 H36        -2.7060   -5.3400    0.9330 h1        1 MOL      0.114392
     88 H37        -1.3560   -5.2660   -1.0300 h1        1 MOL     -0.013359
     89 H38        -3.3900   -3.6040   -2.1230 ho        1 MOL      0.394569
     90 H39        -2.9970   -7.1890   -0.9620 hc        1 MOL      0.069431
     91 H40        -4.2430   -6.1160   -1.7320 hc        1 MOL      0.069431
     92 H41        -2.7850   -6.7460   -2.5330 hc        1 MOL      0.069431
     93 N9         -0.6620   -3.9950    1.2000 n         1 MOL     -0.548649
     94 C29         0.4960   -3.2190    1.7070 c3        1 MOL     -0.075368
     95 C30         1.7880   -3.6350    0.9840 c         1 MOL      0.553376
     96 O16         2.4280   -4.6140    1.3880 o         1 MOL     -0.525826
     97 C31         0.5990   -3.2410    3.2800 c3        1 MOL      0.193099
     98 C32        -0.5580   -2.4950    3.9360 c3        1 MOL      0.077998
     99 C33         1.8610   -2.6560    3.8570 c3        1 MOL     -0.318009
    100 C34        -1.1140   -3.2660    5.1640 c3        1 MOL     -0.302299
    101 H42        -0.6630   -4.9690    1.4220 hn        1 MOL      0.327430
    102 H43         0.3830   -2.1770    1.4070 h1        1 MOL      0.107706
    103 H44         0.5660   -4.2750    3.5980 hc        1 MOL      0.010727
    104 H45        -1.3750   -2.4470    3.2070 hc        1 MOL      0.026449
    105 H46        -0.2790   -1.4560    4.1230 hc        1 MOL      0.026449
    106 H47         1.8130   -1.5740    3.7740 hc        1 MOL      0.064197
    107 H48         1.9700   -2.9080    4.9150 hc        1 MOL      0.064197
    108 H49         2.7440   -2.8960    3.2630 hc        1 MOL      0.064197
    109 H50        -1.6050   -4.1410    4.7370 hc        1 MOL      0.071391
    110 H51        -0.2690   -3.5810    5.7800 hc        1 MOL      0.071391
    111 H52        -1.8090   -2.6390    5.7070 hc        1 MOL      0.071391
    112 N10         2.1560   -2.8540   -0.0760 n         1 MOL     -0.365281
    113 C35         3.4000   -3.0670   -0.8340 c3        1 MOL     -0.007204
    114 C36         4.7240   -2.8060   -0.0890 c         1 MOL      0.423695
    115 O17         4.7830   -2.2170    0.9900 o         1 MOL     -0.391642
    116 C37         3.3150   -2.3910   -2.1970 c3        1 MOL      0.169767
    117 C38         2.2500   -2.8420   -3.1930 c3        1 MOL     -0.397688
    118 O18         2.9410   -1.0110   -1.8660 oh        1 MOL     -0.565380
    119 H53         1.6240   -2.0170   -0.2490 hn        1 MOL      0.312150
    120 H54         3.4970   -4.1290   -1.0540 h1        1 MOL      0.065036
    121 H55         4.2930   -2.3130   -2.6630 h1        1 MOL      0.064761
    122 H56         1.9930   -0.9530   -1.7400 ho        1 MOL      0.303347
    123 H57         2.2270   -2.1150   -4.0100 hc        1 MOL      0.125149
    124 H58         2.4280   -3.8620   -3.5350 hc        1 MOL      0.125149
    125 H59         1.2630   -2.8620   -2.7460 hc        1 MOL      0.125149
    126 N11         5.8170   -3.2220   -0.7280 n         1 MOL     -0.326826
    127 C39         7.0780   -2.8430   -0.2010 c3        1 MOL     -0.094434
    128 C40         7.2600   -1.3520   -0.1050 c         1 MOL      0.383577
    129 O19         7.7120   -0.9020    0.9790 o         1 MOL     -0.475009
    130 C41         8.2330   -3.4250   -1.0600 c3        1 MOL      0.213542
    131 C42         8.3610   -4.9040   -0.6530 c3        1 MOL     -0.249670
    132 O20         8.0450   -3.3660   -2.4470 oh        1 MOL     -0.644803
    133 H60         5.6770   -3.6470   -1.6330 hn        1 MOL      0.276354
    134 H61         7.1450   -3.2350    0.8120 h1        1 MOL      0.153408
    135 H62         9.1660   -2.9390   -0.7670 h1        1 MOL      0.057684
    136 H63         8.7970   -3.8340   -2.8130 ho        1 MOL      0.432031
    137 H64         9.2430   -5.3140   -1.1430 hc        1 MOL      0.073849
    138 H65         8.5670   -4.9040    0.4230 hc        1 MOL      0.073849
    139 H66         7.4890   -5.5300   -0.8550 hc        1 MOL      0.073849
    140 N12         6.8050   -0.5980   -1.1330 n         1 MOL     -0.338714
    141 C43         6.7360    0.8850   -1.1400 c3        1 MOL     -0.012620
    142 C44         5.9490    1.3780    0.0960 c         1 MOL      0.318014
    143 O21         6.3390    2.3770    0.7310 o         1 MOL     -0.519628
    144 C45         6.1250    1.3970   -2.4240 c3        1 MOL      0.030045
    145 C46         6.1230    2.9330   -2.7310 c3        1 MOL     -0.049506
    146 C47         7.4710    3.6250   -2.7000 c3        1 MOL     -0.109153
    147 C48         8.3500    3.1660   -3.8360 c3        1 MOL      0.004888
    148 N13         7.8070    3.5050   -5.1400 n4        1 MOL     -0.256249
    149 H67         6.4160   -1.1530   -1.8930 hn        1 MOL      0.248412
    150 H68         7.7680    1.2310   -1.0380 h1        1 MOL      0.109592
    151 H69         5.0900    1.0570   -2.5320 hc        1 MOL      0.006406
    152 H70         6.6850    0.8910   -3.2120 hc        1 MOL      0.006406
    153 H71         5.5010    3.3770   -1.9560 hc        1 MOL      0.015206
    154 H72         5.5950    3.0730   -3.6720 hc        1 MOL      0.015206
    155 H73         8.0060    3.4730   -1.7580 hc        1 MOL      0.071079
    156 H74         7.3830    4.7100   -2.8130 hc        1 MOL      0.071079
    157 H75         8.4350    2.0870   -3.7300 hx        1 MOL      0.087843
    158 H76         9.3490    3.6010   -3.8690 hx        1 MOL      0.087843
    159 H77         7.5010    4.4660   -5.1050 hn        1 MOL      0.253596
    160 H78         8.5530    3.3610   -5.8040 hn        1 MOL      0.253596
    161 H79         7.0430    2.8890   -5.4070 hn        1 MOL      0.253596
    162 N14         4.8550    0.7440    0.4410 n         1 MOL      0.161490
    163 C49         3.9170    1.3360    1.4790 c3        1 MOL     -0.514986
    164 C50         4.4270    1.1290    2.9460 c         1 MOL      0.573837
    165 O22         4.0660    1.9070    3.8100 o         1 MOL     -0.557982
    166 C51         2.5570    0.7340    1.3040 c3        1 MOL      0.559709
    167 C52         1.9140    1.2400    0.0750 c3        1 MOL      0.065165
    168 C53         0.5010    0.6170   -0.1990 c         1 MOL      0.605741
    169 O23         0.3800   -0.5170   -0.7550 o         1 MOL     -0.697618
    170 O24        -0.5820    1.2210    0.1250 o         1 MOL     -0.697618
    171 H80         4.4420    0.0120   -0.1110 hn        1 MOL      0.112386
    172 H81         3.8420    2.4080    1.2790 h1        1 MOL      0.169211
    173 H82         1.8800    0.8960    2.1500 hc        1 MOL     -0.113256
    174 H83         2.6320   -0.3550    1.2690 hc        1 MOL     -0.113256
    175 H84         2.6600    1.1230   -0.7070 hc        1 MOL     -0.085306
    176 H85         1.8560    2.3220    0.1220 hc        1 MOL     -0.085306
    177 N15         5.2210    0.1380    3.1720 n         1 MOL     -0.129928
    178 C54         6.0340   -0.0350    4.3590 c3        1 MOL     -0.470547
    179 H86         6.8270    0.7120    4.3670 h1        1 MOL      0.168685
    180 H87         5.4130    0.0850    5.2470 h1        1 MOL      0.168685
    181 H88         6.4740   -1.0330    4.3560 h1        1 MOL      0.168685
    182 H89         5.4900   -0.3840    2.3510 hn        1 MOL      0.167906
    183 Ca1        -2.1140   -0.1320   -1.4700 Ca        1 MOL      1.772113
    184 O25        -0.5500   -0.7330   -3.6650 oh        1 MOL     -0.907755
    185 H90         0.2830   -0.2820   -3.8270 ho        1 MOL      0.437948
    186 H91        -0.7650   -1.1600   -4.4890 ho        1 MOL      0.437948
@<TRIPOS>BOND
     1    1    2 1   
     2    1    4 1   
     3    1    5 1   
     4    1    6 1   
     5    2    3 2   
     6    2    7 1   
     7    7    8 1   
     8    7   15 1   
     9    8    9 1   
    10    8   11 1   
    11    8   16 1   
    12    9   10 2   
    13    9   19 1   
    14   11   12 1   
    15   11   17 1   
    16   11   18 1   
    17   12   13 1   
    18   12   14 1   
    19   19   20 1   
    20   19   28 1   
    21   20   21 1   
    22   20   23 1   
    23   20   29 1   
    24   21   22 2   
    25   21   41 1   
    26   23   24 1   
    27   23   30 1   
    28   23   31 1   
    29   24   25 1   
    30   24   32 1   
    31   24   33 1   
    32   25   26 1   
    33   25   34 1   
    34   25   35 1   
    35   26   27 1   
    36   26   36 1   
    37   26   37 1   
    38   27   38 1   
    39   27   39 1   
    40   27   40 1   
    41   41   42 1   
    42   41   49 1   
    43   42   43 1   
    44   42   45 1   
    45   42   50 1   
    46   43   44 2   
    47   43   53 1   
    48   45   46 1   
    49   45   51 1   
    50   45   52 1   
    51   46   47 1   
    52   46   48 1   
    53   53   54 1   
    54   53   57 1   
    55   54   55 1   
    56   54   58 1   
    57   54   59 1   
    58   55   56 2   
    59   55   60 1   
    60   60   61 1   
    61   60   68 1   
    62   61   62 1   
    63   61   64 1   
    64   61   69 1   
    65   62   63 2   
    66   62   72 1   
    67   64   65 1   
    68   64   70 1   
    69   64   71 1   
    70   65   66 1   
    71   65   67 1   
    72   72   73 1   
    73   72   76 1   
    74   73   74 1   
    75   73   77 1   
    76   73   78 1   
    77   74   75 2   
    78   74   79 1   
    79   79   80 1   
    80   79   86 1   
    81   80   81 1   
    82   80   83 1   
    83   80   87 1   
    84   81   82 2   
    85   81   93 1   
    86   83   84 1   
    87   83   85 1   
    88   83   88 1   
    89   84   90 1   
    90   84   91 1   
    91   84   92 1   
    92   85   89 1   
    93   93   94 1   
    94   93  101 1   
    95   94   95 1   
    96   94   97 1   
    97   94  102 1   
    98   95   96 2   
    99   95  112 1   
   100   97   98 1   
   101   97   99 1   
   102   97  103 1   
   103   98  100 1   
   104   98  104 1   
   105   98  105 1   
   106   99  106 1   
   107   99  107 1   
   108   99  108 1   
   109  100  109 1   
   110  100  110 1   
   111  100  111 1   
   112  112  113 1   
   113  112  119 1   
   114  113  114 1   
   115  113  116 1   
   116  113  120 1   
   117  114  115 2   
   118  114  126 1   
   119  116  117 1   
   120  116  118 1   
   121  116  121 1   
   122  117  123 1   
   123  117  124 1   
   124  117  125 1   
   125  118  122 1   
   126  126  127 1   
   127  126  133 1   
   128  127  128 1   
   129  127  130 1   
   130  127  134 1   
   131  128  129 2   
   132  128  140 1   
   133  130  131 1   
   134  130  132 1   
   135  130  135 1   
   136  131  137 1   
   137  131  138 1   
   138  131  139 1   
   139  132  136 1   
   140  140  141 1   
   141  140  149 1   
   142  141  142 1   
   143  141  144 1   
   144  141  150 1   
   145  142  143 2   
   146  142  162 1   
   147  144  145 1   
   148  144  151 1   
   149  144  152 1   
   150  145  146 1   
   151  145  153 1   
   152  145  154 1   
   153  146  147 1   
   154  146  155 1   
   155  146  156 1   
   156  147  148 1   
   157  147  157 1   
   158  147  158 1   
   159  148  159 1   
   160  148  160 1   
   161  148  161 1   
   162  162  163 1   
   163  162  171 1   
   164  163  164 1   
   165  163  166 1   
   166  163  172 1   
   167  164  165 2   
   168  164  177 1   
   169  166  167 1   
   170  166  173 1   
   171  166  174 1   
   172  167  168 1   
   173  167  175 1   
   174  167  176 1   
   175  168  169 1   
   176  168  170 1   
   177  177  178 1   
   178  177  182 1   
   179  178  179 1   
   180  178  180 1   
   181  178  181 1   
   182  184  185 1   
   183  184  186 1   
@<TRIPOS>SUBSTRUCTURE
     1 MOL         1 TEMP              0 ****  ****    0 ROOT
