@<TRIPOS>MOLECULE
MOL
  183   181     1     0     0
SMALL
resp


@<TRIPOS>ATOM
      1 C1         -0.9470    0.6990    6.7230 c3        1 MOL     -0.315950
      2 C2         -1.2380    0.9040    5.1770 c         1 MOL      0.776044
      3 O1         -0.4540    1.5610    4.5280 o         1 MOL     -0.582689
      4 H1         -1.8520    0.9100    7.2940 hc        1 MOL      0.072031
      5 H2         -0.6370   -0.3300    6.9020 hc        1 MOL      0.072031
      6 H3         -0.1540    1.3780    7.0370 hc        1 MOL      0.072031
      7 N1         -2.4120    0.4870    4.5980 n         1 MOL     -0.733007
      8 C3         -2.8290    0.7800    3.1900 c3        1 MOL      0.250070
      9 C4         -3.3070    2.2130    2.9390 c         1 MOL      0.564183
     10 O2         -3.6800    2.8980    3.9000 o         1 MOL     -0.606150
     11 C5         -3.8120   -0.3110    2.6930 c3        1 MOL     -0.209795
     12 C6         -4.6330    0.0640    1.4320 c         1 MOL      0.614576
     13 O3         -5.8510   -0.0930    1.5040 o         1 MOL     -0.601330
     14 O4         -4.0010    0.4090    0.3750 o         1 MOL     -0.601330
     15 H4         -3.0460    0.0210    5.2350 hn        1 MOL      0.325873
     16 H5         -1.9060    0.6890    2.6180 h1        1 MOL      0.129467
     17 H6         -4.3950   -0.6110    3.5670 hc        1 MOL      0.041516
     18 H7         -3.2820   -1.2540    2.5160 hc        1 MOL      0.041516
     19 N2         -3.2320    2.7910    1.7160 n         1 MOL     -0.237394
     20 C7         -3.5590    4.1570    1.3550 c3        1 MOL      0.069873
     21 C8         -4.6170    4.3300    0.3010 c         1 MOL      0.387205
     22 O5         -5.3280    5.3190    0.2900 o         1 MOL     -0.569342
     23 C9         -2.2810    4.8710    0.9330 c3        1 MOL      0.245369
     24 C10        -1.2660    4.9350    2.1370 c3        1 MOL     -0.034266
     25 C11        -2.4820    6.3760    0.6220 c3        1 MOL     -0.391601
     26 C12         0.0940    5.5230    1.9510 c3        1 MOL     -0.162789
     27 H8         -2.9130    2.1460    1.0090 hn        1 MOL     -0.205070
     28 H9         -3.9910    4.6430    2.2310 h1        1 MOL      0.049022
     29 H10        -1.9010    4.2450    0.1210 hc        1 MOL      0.040552
     30 H11        -1.1260    3.9770    2.6580 hc        1 MOL      0.034287
     31 H12        -1.6460    5.4500    3.0200 hc        1 MOL      0.034287
     32 H13        -3.0220    6.7720    1.4870 hc        1 MOL      0.080002
     33 H14        -1.5450    6.8740    0.3550 hc        1 MOL      0.080002
     34 H15        -3.1420    6.4400   -0.2360 hc        1 MOL      0.080002
     35 H16         0.1110    6.5890    1.7010 hc        1 MOL      0.030121
     36 H17         0.7220    5.3400    2.8230 hc        1 MOL      0.030121
     37 H18         0.6330    5.0380    1.1380 hc        1 MOL      0.030121
     38 N3         -4.8670    3.2970   -0.5350 n         1 MOL      0.008445
     39 C13        -5.7850    3.4000   -1.6670 c3        1 MOL     -0.070833
     40 C14        -7.1820    2.8820   -1.4190 c         1 MOL      0.473731
     41 O6         -8.1010    3.1860   -2.1520 o         1 MOL     -0.574500
     42 C15        -5.2030    2.6670   -2.8820 c3        1 MOL     -0.017681
     43 C16        -3.7010    2.8760   -3.1050 c         1 MOL      0.674110
     44 O7         -3.3340    3.7240   -3.8880 o         1 MOL     -0.688678
     45 O8         -2.9300    2.1700   -2.4480 o         1 MOL     -0.688678
     46 H19        -4.2050    2.5290   -0.5320 hn        1 MOL      0.102012
     47 H20        -5.8960    4.4450   -1.9500 h1        1 MOL      0.080210
     48 H21        -5.7330    2.9070   -3.8010 hc        1 MOL     -0.011756
     49 H22        -5.4280    1.6080   -2.7280 hc        1 MOL     -0.011756
     50 N4         -7.3970    2.1920   -0.3370 n         1 MOL     -0.359152
     51 C17        -8.6660    1.3920    0.0760 c3        1 MOL     -0.040956
     52 C18        -8.6550   -0.0720   -0.2730 c         1 MOL      0.493620
     53 O9         -9.7450   -0.6020   -0.3260 o         1 MOL     -0.605632
     54 H23        -6.5980    1.9580    0.2340 hn        1 MOL      0.205122
     55 H24        -9.5120    1.8260   -0.4630 h1        1 MOL      0.075013
     56 H25        -8.8420    1.5960    1.1380 h1        1 MOL      0.075013
     57 N5         -7.5040   -0.5920   -0.7060 n         1 MOL     -0.091511
     58 C19        -7.3880   -1.8680   -1.4140 c3        1 MOL     -0.172333
     59 C20        -6.8050   -3.0200   -0.5210 c         1 MOL      0.356764
     60 O10        -6.6810   -4.1640   -0.9910 o         1 MOL     -0.529863
     61 C21        -6.4900   -1.6220   -2.6590 c3        1 MOL     -0.075065
     62 C22        -4.9770   -1.3990   -2.4410 c         1 MOL      0.698206
     63 O11        -4.2320   -0.8910   -3.3270 o         1 MOL     -0.736049
     64 O12        -4.4330   -1.7180   -1.3320 o         1 MOL     -0.736049
     65 H26        -6.6530   -0.2880   -0.2540 hn        1 MOL      0.161259
     66 H27        -8.3870   -2.0750   -1.7970 h1        1 MOL      0.140641
     67 H28        -6.8730   -0.7470   -3.1920 hc        1 MOL      0.036499
     68 H29        -6.6170   -2.4740   -3.3250 hc        1 MOL      0.036499
     69 N6         -6.5250   -2.7990    0.7210 n         1 MOL     -0.111976
     70 C23        -6.1430   -3.8030    1.6660 c3        1 MOL     -0.087252
     71 C24        -4.8280   -4.5050    1.2640 c         1 MOL      0.471453
     72 O13        -4.6370   -5.6450    1.6620 o         1 MOL     -0.582441
     73 H30        -6.5180   -1.8290    0.9930 hn        1 MOL      0.129234
     74 H31        -6.9420   -4.5180    1.8660 h1        1 MOL      0.071771
     75 H32        -5.9940   -3.2250    2.5840 h1        1 MOL      0.071771
     76 N7         -3.8920   -3.9870    0.4260 n         1 MOL     -0.183363
     77 C25        -2.5340   -4.5170    0.2790 c3        1 MOL     -0.034564
     78 C26        -1.5730   -3.4150    0.5070 c         1 MOL      0.465437
     79 O14        -1.8940   -2.2030    0.3370 o         1 MOL     -0.560676
     80 C27        -2.3160   -5.2940   -1.0510 c3        1 MOL      0.070186
     81 C28        -2.7040   -4.6260   -2.4040 c3        1 MOL     -0.368457
     82 C29        -1.6810   -3.6890   -3.0320 c         1 MOL      0.768633
     83 N8         -0.9770   -4.1610   -4.0770 n         1 MOL     -0.863450
     84 O15        -1.4270   -2.6060   -2.5670 o         1 MOL     -0.604116
     85 H33        -4.0960   -3.1280   -0.0490 hn        1 MOL      0.241895
     86 H34        -2.3940   -5.2580    1.0680 h1        1 MOL      0.064263
     87 H35        -2.6920   -6.3210   -1.0370 hc        1 MOL      0.009396
     88 H36        -1.2650   -5.5830   -1.1090 hc        1 MOL      0.009396
     89 H37        -3.6640   -4.1440   -2.2640 hc        1 MOL      0.113360
     90 H38        -2.7360   -5.3770   -3.1980 hc        1 MOL      0.113360
     91 H39        -0.9940   -5.0430   -4.5590 hn        1 MOL      0.372922
     92 H40        -0.3100   -3.4820   -4.4180 hn        1 MOL      0.372922
     93 N9         -0.3670   -3.8110    0.9710 n         1 MOL     -0.362599
     94 C30         0.7410   -2.9700    1.2800 c3        1 MOL     -0.003970
     95 C31         1.8830   -3.5400    0.4070 c         1 MOL      0.341561
     96 O16         2.4090   -4.6410    0.4920 o         1 MOL     -0.548764
     97 C32         1.1160   -3.1790    2.7510 c3        1 MOL      0.182874
     98 C33         2.3530   -2.4410    3.1130 c3        1 MOL     -0.202271
     99 C34         0.0090   -2.6510    3.6320 c3        1 MOL     -0.202271
    100 H41        -0.2410   -4.8000    1.1510 hn        1 MOL      0.263914
    101 H42         0.5090   -1.9520    0.9560 h1        1 MOL      0.189286
    102 H43         1.2650   -4.2490    2.9300 hc        1 MOL     -0.012568
    103 H44         2.7170   -2.7010    4.1030 hc        1 MOL      0.036378
    104 H45         3.2010   -2.7000    2.4770 hc        1 MOL      0.036378
    105 H46         2.2450   -1.3540    3.0600 hc        1 MOL      0.036378
    106 H47        -0.8940   -3.2610    3.6170 hc        1 MOL      0.036378
    107 H48         0.3350   -2.6350    4.6720 hc        1 MOL      0.036378
    108 H49        -0.3470   -1.7040    3.2360 hc        1 MOL      0.036378
    109 N10         2.2840   -2.7170   -0.5180 n         1 MOL     -0.144944
    110 C35         3.4480   -2.7740   -1.3970 c3        1 MOL      0.063438
    111 C36         4.6570   -2.1730   -0.6110 c         1 MOL      0.392544
    112 O17         4.5120   -1.5190    0.4150 o         1 MOL     -0.208463
    113 C37         3.2200   -2.0530   -2.6710 c3        1 MOL     -0.226923
    114 C38         3.3900   -0.5200   -2.6260 c         1 MOL      0.441380
    115 N11         2.4290    0.1860   -2.0970 n         1 MOL     -0.408645
    116 O18         4.3300    0.0410   -3.2350 o         1 MOL     -0.467882
    117 H50         1.7390   -1.8650   -0.5100 hn        1 MOL      0.087911
    118 H51         3.6170   -3.8270   -1.6000 h1        1 MOL      0.084496
    119 H52         2.1540   -2.1350   -2.8700 hc        1 MOL      0.089170
    120 H53         3.7410   -2.4850   -3.5340 hc        1 MOL      0.089170
    121 H54         1.6750   -0.2180   -1.5620 hn        1 MOL      0.299426
    122 H55         2.4320    1.1870   -2.1760 hn        1 MOL      0.299426
    123 N12         5.9150   -2.2510   -1.0750 n         1 MOL     -0.563967
    124 C39         7.0760   -1.6040   -0.3760 c3        1 MOL      0.312407
    125 C40         6.9490   -0.1270   -0.1600 c         1 MOL      0.599064
    126 O19         7.3630    0.4210    0.8500 o         1 MOL     -0.524554
    127 C41         8.3340   -1.8550   -1.1300 c3        1 MOL     -0.256491
    128 C42         9.6460   -1.3550   -0.5500 ca        1 MOL      0.056641
    129 C43         9.9590   -1.7650    0.7860 ca        1 MOL     -0.144754
    130 C44        10.4780   -0.5360   -1.3340 ca        1 MOL     -0.144754
    131 C45        11.2460   -1.3810    1.2680 ca        1 MOL     -0.281173
    132 C46        11.6550   -0.1330   -0.7750 ca        1 MOL     -0.281173
    133 C47        12.0770   -0.5260    0.5140 ca        1 MOL      0.345258
    134 O20        13.2480   -0.0740    1.0830 oh        1 MOL     -0.506512
    135 H56         6.1560   -2.8880   -1.8270 hn        1 MOL      0.301347
    136 H57         7.1810   -2.0990    0.5930 h1        1 MOL      0.023184
    137 H58         8.3900   -1.4170   -2.1290 hc        1 MOL      0.069522
    138 H59         8.4660   -2.9270   -1.1890 hc        1 MOL      0.069522
    139 H60         9.3700   -2.4170    1.4120 ha        1 MOL      0.148930
    140 H61        10.2580   -0.2430   -2.3540 ha        1 MOL      0.148930
    141 H62        11.5760   -1.6800    2.2510 ha        1 MOL      0.147449
    142 H63        12.2070    0.5740   -1.3790 ha        1 MOL      0.147449
    143 H64        13.5970    0.5980    0.4930 ho        1 MOL      0.359252
    144 N13         6.2400    0.6140   -1.0620 n         1 MOL     -0.418784
    145 C48         6.0360    2.0230   -0.7500 c3        1 MOL      0.087144
    146 C49         5.0110    2.2780    0.3990 c         1 MOL      0.369845
    147 O21         5.0950    3.2580    1.0760 o         1 MOL     -0.512784
    148 C50         5.6420    2.9000   -1.8630 c3        1 MOL      0.072303
    149 C51         6.7400    3.1940   -2.9010 c3        1 MOL     -0.280093
    150 C52         6.1000    3.9870   -4.0780 c         1 MOL      0.694999
    151 O22         6.0790    3.4340   -5.1850 o         1 MOL     -0.727922
    152 O23         5.5550    5.0870   -3.9010 o         1 MOL     -0.727922
    153 H65         5.8050    0.1450   -1.8400 hn        1 MOL      0.240973
    154 H66         6.9650    2.3860   -0.3140 h1        1 MOL      0.063532
    155 H67         5.1820    3.8020   -1.4900 hc        1 MOL      0.038397
    156 H68         4.8990    2.3260   -2.4100 hc        1 MOL      0.038397
    157 H69         7.0760    2.2650   -3.3670 hc        1 MOL      0.022599
    158 H70         7.5660    3.7190   -2.4200 hc        1 MOL      0.022599
    159 N14         4.0070    1.4240    0.5740 n         1 MOL      0.093422
    160 C53         3.1970    1.4820    1.7800 c3        1 MOL     -0.031473
    161 C54         3.9310    0.9580    2.9880 c         1 MOL      0.424108
    162 O24         3.6850    1.5900    4.0710 o         1 MOL     -0.582810
    163 C55         1.8030    0.9040    1.5070 c3        1 MOL      0.028182
    164 C56         1.1450    1.7710    0.4910 c3        1 MOL     -0.016869
    165 C57        -0.0880    1.0350   -0.0320 c         1 MOL      0.438678
    166 O25        -1.2130    1.5680   -0.0320 o         1 MOL     -0.605134
    167 O26        -0.0230   -0.1630   -0.4070 o         1 MOL     -0.605134
    168 H71         4.0050    0.5540    0.0500 hn        1 MOL     -0.551482
    169 H72         3.0620    2.5290    2.0300 h1        1 MOL      0.103664
    170 H73         1.2010    0.9580    2.4080 hc        1 MOL      0.065655
    171 H74         1.8820   -0.0980    1.0790 hc        1 MOL      0.065655
    172 H75         1.7540    2.1520   -0.3350 hc        1 MOL      0.045608
    173 H76         0.8170    2.6650    1.0260 hc        1 MOL      0.045608
    174 N15         4.9180    0.1080    2.8800 n         1 MOL      0.084948
    175 C58         5.7130   -0.4560    3.9440 c3        1 MOL     -0.265582
    176 H77         5.0920   -0.5830    4.8310 h1        1 MOL      0.087302
    177 H78         6.1040   -1.4250    3.6330 h1        1 MOL      0.087302
    178 H79         6.5420    0.2140    4.1740 h1        1 MOL      0.087302
    179 H80         5.0650   -0.2450    1.9510 hn        1 MOL     -0.013130
    180 Ca1        -2.3040   -0.3310   -1.4860 Ca        1 MOL      1.748067
    181 O27        -0.4130    0.1240   -3.3800 oh        1 MOL     -0.847378
    182 H81        -0.6820    0.8910   -3.8800 ho        1 MOL      0.397562
    183 H82         0.5430    0.1180   -3.4340 ho        1 MOL      0.397562
@<TRIPOS>BOND
     1    1    2 1   
     2    1    4 1   
     3    1    5 1   
     4    1    6 1   
     5    2    3 2   
     6    2    7 1   
     7    7    8 1   
     8    7   15 1   
     9    8    9 1   
    10    8   11 1   
    11    8   16 1   
    12    9   10 2   
    13    9   19 1   
    14   11   12 1   
    15   11   17 1   
    16   11   18 1   
    17   12   13 1   
    18   12   14 1   
    19   19   20 1   
    20   19   27 1   
    21   20   21 1   
    22   20   23 1   
    23   20   28 1   
    24   21   22 2   
    25   21   38 1   
    26   23   24 1   
    27   23   25 1   
    28   23   29 1   
    29   24   26 1   
    30   24   30 1   
    31   24   31 1   
    32   25   32 1   
    33   25   33 1   
    34   25   34 1   
    35   26   35 1   
    36   26   36 1   
    37   26   37 1   
    38   38   39 1   
    39   38   46 1   
    40   39   40 1   
    41   39   42 1   
    42   39   47 1   
    43   40   41 2   
    44   40   50 1   
    45   42   43 1   
    46   42   48 1   
    47   42   49 1   
    48   43   44 1   
    49   43   45 1   
    50   50   51 1   
    51   50   54 1   
    52   51   52 1   
    53   51   55 1   
    54   51   56 1   
    55   52   53 2   
    56   52   57 1   
    57   57   58 1   
    58   57   65 1   
    59   58   59 1   
    60   58   61 1   
    61   58   66 1   
    62   59   60 2   
    63   59   69 1   
    64   61   62 1   
    65   61   67 1   
    66   61   68 1   
    67   62   63 1   
    68   62   64 1   
    69   69   70 1   
    70   69   73 1   
    71   70   71 1   
    72   70   74 1   
    73   70   75 1   
    74   71   72 2   
    75   71   76 1   
    76   76   77 1   
    77   76   85 1   
    78   77   78 1   
    79   77   80 1   
    80   77   86 1   
    81   78   79 2   
    82   78   93 1   
    83   80   81 1   
    84   80   87 1   
    85   80   88 1   
    86   81   82 1   
    87   81   89 1   
    88   81   90 1   
    89   82   83 1   
    90   82   84 2   
    91   83   91 1   
    92   83   92 1   
    93   93   94 1   
    94   93  100 1   
    95   94   95 1   
    96   94   97 1   
    97   94  101 1   
    98   95   96 2   
    99   95  109 1   
   100   97   98 1   
   101   97   99 1   
   102   97  102 1   
   103   98  103 1   
   104   98  104 1   
   105   98  105 1   
   106   99  106 1   
   107   99  107 1   
   108   99  108 1   
   109  109  110 1   
   110  109  117 1   
   111  110  111 1   
   112  110  113 1   
   113  110  118 1   
   114  111  112 2   
   115  111  123 1   
   116  113  114 1   
   117  113  119 1   
   118  113  120 1   
   119  114  115 1   
   120  114  116 2   
   121  115  121 1   
   122  115  122 1   
   123  123  124 1   
   124  123  135 1   
   125  124  125 1   
   126  124  127 1   
   127  124  136 1   
   128  125  126 2   
   129  125  144 1   
   130  127  128 1   
   131  127  137 1   
   132  127  138 1   
   133  128  129 ar  
   134  128  130 ar  
   135  129  131 ar  
   136  129  139 1   
   137  130  132 ar  
   138  130  140 1   
   139  131  133 ar  
   140  131  141 1   
   141  132  133 ar  
   142  132  142 1   
   143  133  134 1   
   144  134  143 1   
   145  144  145 1   
   146  144  153 1   
   147  145  146 1   
   148  145  148 1   
   149  145  154 1   
   150  146  147 2   
   151  146  159 1   
   152  148  149 1   
   153  148  155 1   
   154  148  156 1   
   155  149  150 1   
   156  149  157 1   
   157  149  158 1   
   158  150  151 1   
   159  150  152 1   
   160  159  160 1   
   161  159  168 1   
   162  160  161 1   
   163  160  163 1   
   164  160  169 1   
   165  161  162 2   
   166  161  174 1   
   167  163  164 1   
   168  163  170 1   
   169  163  171 1   
   170  164  165 1   
   171  164  172 1   
   172  164  173 1   
   173  165  166 1   
   174  165  167 1   
   175  174  175 1   
   176  174  179 1   
   177  175  176 1   
   178  175  177 1   
   179  175  178 1   
   180  181  182 1   
   181  181  183 1   
@<TRIPOS>SUBSTRUCTURE
     1 MOL         1 TEMP              0 ****  ****    0 ROOT
