@<TRIPOS>MOLECULE
MOL
  182   178     1     0     0
SMALL
resp


@<TRIPOS>ATOM
      1 C1          2.7420    2.6680    4.3980 c3        1 MOL     -0.333869
      2 C2          1.8070    2.7690    3.1640 c         1 MOL      0.558604
      3 O1          2.3380    2.9950    2.0940 o         1 MOL     -0.550695
      4 H1          2.3990    3.3570    5.1700 hc        1 MOL      0.090763
      5 H2          2.7240    1.6500    4.7860 hc        1 MOL      0.090763
      6 H3          3.7600    2.9290    4.1050 hc        1 MOL      0.090763
      7 N1          0.5480    2.4000    3.2280 n         1 MOL     -0.494139
      8 C3         -0.4340    2.3060    2.1240 c3        1 MOL      0.355076
      9 C4         -0.7990    3.6850    1.5850 c         1 MOL      0.218607
     10 O2         -1.8140    4.2430    1.9740 o         1 MOL     -0.459409
     11 C5         -1.6620    1.5060    2.6540 c3        1 MOL     -0.164689
     12 C6         -2.6150    1.1320    1.5290 c         1 MOL      0.710834
     13 O3         -3.7540    0.7100    1.8760 o         1 MOL     -0.698070
     14 O4         -2.3240    1.2090    0.3000 o         1 MOL     -0.698070
     15 H4          0.2600    2.2040    4.1750 hn        1 MOL      0.282708
     16 H5         -0.0210    1.6610    1.3530 h1        1 MOL     -0.041501
     17 H6         -2.1030    2.0680    3.4750 hc        1 MOL      0.041601
     18 H7         -1.2020    0.6430    3.1340 hc        1 MOL      0.041601
     19 N2         -0.0110    4.2960    0.7010 n         1 MOL     -0.114536
     20 C7         -0.0770    5.6690    0.2990 c3        1 MOL     -0.028687
     21 C8         -1.2200    5.9530   -0.7440 c         1 MOL      0.431816
     22 O5         -1.6270    7.1400   -0.8930 o         1 MOL     -0.575129
     23 C9          1.3210    6.1270   -0.2720 c3        1 MOL     -0.266765
     24 C10         2.3700    6.3670    0.8610 c3        1 MOL      0.137434
     25 C11         3.7000    6.9730    0.3600 c3        1 MOL      0.041896
     26 C12         4.7820    7.0440    1.4690 c3        1 MOL     -0.109705
     27 N3          4.2640    7.4300    2.7980 n4        1 MOL     -0.280575
     28 H8          0.7030    3.7710    0.2080 hn        1 MOL      0.193584
     29 H9         -0.2950    6.3470    1.1200 h1        1 MOL      0.104701
     30 H10         1.1970    7.0560   -0.8150 hc        1 MOL      0.101720
     31 H11         1.7570    5.3880   -0.9450 hc        1 MOL      0.101720
     32 H12         2.6070    5.4170    1.3320 hc        1 MOL     -0.019239
     33 H13         1.8900    6.9520    1.6370 hc        1 MOL     -0.019239
     34 H14         3.4870    8.0120    0.0950 hc        1 MOL      0.022181
     35 H15         4.1060    6.4470   -0.5070 hc        1 MOL      0.022181
     36 H16         5.5710    7.7230    1.1610 hx        1 MOL      0.127097
     37 H17         5.1450    6.0270    1.6200 hx        1 MOL      0.127097
     38 H18         3.4310    6.9510    3.1000 hn        1 MOL      0.303842
     39 H19         4.9810    7.4190    3.5150 hn        1 MOL      0.303842
     40 H20         4.1430    8.4380    2.7950 hn        1 MOL      0.303842
     41 N4         -1.8340    4.9490   -1.2990 n         1 MOL     -0.238633
     42 C13        -3.1430    5.0530   -2.0000 c3        1 MOL      0.141400
     43 C14        -4.4450    4.6250   -1.2070 c         1 MOL      0.296748
     44 O6         -5.5980    4.9070   -1.5860 o         1 MOL     -0.504455
     45 C15        -3.0690    4.3800   -3.3550 c3        1 MOL     -0.392146
     46 C16        -2.5250    2.9740   -3.4520 c         1 MOL      0.938601
     47 O7         -2.4000    2.5080   -4.5950 o         1 MOL     -0.752798
     48 O8         -2.1430    2.4300   -2.4380 o         1 MOL     -0.752798
     49 H21        -1.4170    4.0580   -1.0690 hn        1 MOL      0.168981
     50 H22        -3.3370    6.1090   -2.1920 h1        1 MOL      0.100722
     51 H23        -2.3540    4.9810   -3.9180 hc        1 MOL      0.088678
     52 H24        -4.0280    4.5130   -3.8510 hc        1 MOL      0.088678
     53 N5         -4.2240    4.0300   -0.0350 n         1 MOL      0.064876
     54 C17        -5.2340    3.7610    0.9520 c3        1 MOL     -0.343964
     55 C18        -6.1350    2.5440    0.6310 c         1 MOL      0.587068
     56 O9         -7.2770    2.5010    1.0200 o         1 MOL     -0.575767
     57 H25        -3.2670    3.9520    0.2760 hn        1 MOL      0.046055
     58 H26        -5.8590    4.6540    1.0310 h1        1 MOL      0.145215
     59 H27        -4.6880    3.5950    1.8760 h1        1 MOL      0.145215
     60 N6         -5.7600    1.6360   -0.2800 n         1 MOL     -0.234028
     61 C19        -6.6320    0.5610   -0.8000 c3        1 MOL     -0.071881
     62 C20        -6.7750   -0.6300    0.1350 c         1 MOL      0.227098
     63 O10        -7.5710   -1.5510   -0.1770 o         1 MOL     -0.486897
     64 C21        -6.2280    0.0050   -2.1710 c3        1 MOL      0.034658
     65 C22        -4.9110   -0.7480   -2.2340 c         1 MOL      0.580268
     66 N7         -5.0100   -1.9620   -2.7310 n         1 MOL     -0.810528
     67 O11        -3.9060   -0.3630   -1.7770 o         1 MOL     -0.590824
     68 H28        -4.7950    1.6340   -0.5790 hn        1 MOL      0.181101
     69 H29        -7.6320    0.9530   -1.0160 h1        1 MOL      0.142237
     70 H30        -6.1180    0.8790   -2.8170 hc        1 MOL      0.013144
     71 H31        -7.0590   -0.5650   -2.5940 hc        1 MOL      0.013144
     72 H32        -5.9130   -2.2640   -3.0870 hn        1 MOL      0.384989
     73 H33        -4.1960   -2.5410   -2.8680 hn        1 MOL      0.384989
     74 N8         -5.9830   -0.6890    1.1920 n         1 MOL      0.160507
     75 C23        -6.1470   -1.6510    2.3270 c3        1 MOL     -0.467852
     76 C24        -5.0280   -2.6220    2.3560 c         1 MOL      0.831904
     77 O12        -5.0480   -3.6150    3.1370 o         1 MOL     -0.610749
     78 H34        -5.2270   -0.0220    1.2370 hn        1 MOL      0.118216
     79 H35        -7.0450   -2.2640    2.2210 h1        1 MOL      0.161961
     80 H36        -6.1680   -1.0900    3.2680 h1        1 MOL      0.161961
     81 N9         -3.9170   -2.3960    1.6300 n         1 MOL     -0.701570
     82 C25        -2.7930   -3.3330    1.3590 c3        1 MOL      0.129787
     83 C26        -1.4860   -2.5480    1.2130 c         1 MOL      0.734098
     84 O13        -1.4410   -1.5990    0.4500 o         1 MOL     -0.686688
     85 C27        -3.0380   -4.0570    0.0470 c3        1 MOL     -0.143398
     86 C28        -4.2140   -4.9410    0.0620 ca        1 MOL      0.111938
     87 C29        -5.5130   -4.4760   -0.3590 ca        1 MOL     -0.257262
     88 C30        -4.0130   -6.2780    0.5140 ca        1 MOL     -0.257262
     89 C31        -6.5940   -5.3410   -0.2960 ca        1 MOL     -0.156143
     90 C32        -5.1390   -7.1460    0.5520 ca        1 MOL     -0.156143
     91 C33        -6.4090   -6.6640    0.1670 ca        1 MOL      0.253589
     92 O14        -7.5740   -7.4530    0.2780 oh        1 MOL     -0.468746
     93 H37        -3.7230   -1.5030    1.2010 hn        1 MOL      0.392698
     94 H38        -2.6750   -4.0870    2.1340 h1        1 MOL      0.071742
     95 H39        -2.1980   -4.7360   -0.1140 hc        1 MOL      0.057742
     96 H40        -3.1720   -3.3550   -0.7800 hc        1 MOL      0.057742
     97 H41        -5.6220   -3.4290   -0.5930 ha        1 MOL      0.155951
     98 H42        -3.1360   -6.4870    1.1090 ha        1 MOL      0.155951
     99 H43        -7.5360   -4.8870   -0.5970 ha        1 MOL      0.125342
    100 H44        -5.0250   -8.1600    0.9050 ha        1 MOL      0.125342
    101 H45        -7.3560   -8.2210    0.7950 ho        1 MOL      0.337352
    102 N10        -0.4620   -2.9490    1.9210 n         1 MOL     -0.682069
    103 C34         1.0000   -2.5960    1.6840 c3        1 MOL      0.241602
    104 C35         1.6670   -3.5730    0.6480 c         1 MOL      0.483973
    105 O15         1.5550   -4.8010    0.7590 o         1 MOL     -0.561820
    106 C36         1.8400   -2.7930    2.9910 c3        1 MOL      0.084304
    107 C37         1.0090   -2.3950    4.2660 c3        1 MOL      0.147127
    108 C38         3.2090   -2.0380    2.8880 c3        1 MOL     -0.329377
    109 C39         1.7320   -2.6310    5.6270 c3        1 MOL     -0.161488
    110 H46        -0.5670   -3.5230    2.7360 hn        1 MOL      0.294233
    111 H47         1.0900   -1.5500    1.4040 h1        1 MOL      0.104241
    112 H48         2.0090   -3.8620    3.1230 hc        1 MOL      0.002729
    113 H49         0.1160   -3.0230    4.2420 hc        1 MOL     -0.035021
    114 H50         0.6130   -1.3790    4.1470 hc        1 MOL     -0.035021
    115 H51         3.0740   -0.9960    2.5990 hc        1 MOL      0.069315
    116 H52         3.7940   -2.1120    3.8070 hc        1 MOL      0.069315
    117 H53         3.7390   -2.4250    2.0170 hc        1 MOL      0.069315
    118 H54         1.0220   -2.3600    6.4130 hc        1 MOL      0.042396
    119 H55         1.8940   -3.6960    5.7710 hc        1 MOL      0.042396
    120 H56         2.6130   -2.0430    5.8650 hc        1 MOL      0.042396
    121 N11         2.4280   -3.0340   -0.2970 n         1 MOL     -0.039215
    122 C40         3.4180   -3.8900   -1.0510 c3        1 MOL      0.004283
    123 C41         4.8610   -3.7390   -0.4980 c         1 MOL      0.390050
    124 O16         5.2640   -2.8600    0.2830 o         1 MOL     -0.298535
    125 C42         3.3670   -3.5310   -2.5450 c3        1 MOL     -0.238510
    126 O17         3.8030   -2.1820   -2.7160 oh        1 MOL     -0.355831
    127 H57         2.5210   -2.0330   -0.3540 hn        1 MOL     -0.179492
    128 H58         3.0840   -4.9000   -0.8100 h1        1 MOL      0.093049
    129 H59         2.3750   -3.6850   -2.9690 h1        1 MOL      0.126653
    130 H60         4.0280   -4.1820   -3.1160 h1        1 MOL      0.126653
    131 H61         3.3430   -1.7850   -3.4560 ho        1 MOL      0.349629
    132 N12         5.8010   -4.5360   -1.0540 n         1 MOL     -0.413524
    133 C43         7.2210   -4.3570   -0.8730 c3        1 MOL      0.127936
    134 C44         7.7410   -2.9590   -1.2530 c         1 MOL      0.466163
    135 O18         8.5600   -2.3710   -0.5570 o         1 MOL     -0.517206
    136 C45         7.8730   -5.5200   -1.5960 c3        1 MOL     -0.241696
    137 H62         5.4450   -5.2290   -1.7010 hn        1 MOL      0.290102
    138 H63         7.4560   -4.5380    0.1730 h1        1 MOL      0.085231
    139 H64         7.5840   -6.4610   -1.1320 hc        1 MOL      0.073614
    140 H65         7.4440   -5.6000   -2.5930 hc        1 MOL      0.073614
    141 H66         8.9610   -5.4400   -1.6570 hc        1 MOL      0.073614
    142 N13         7.1610   -2.3370   -2.2670 n         1 MOL     -0.353703
    143 C46         7.5740   -0.9690   -2.7580 c3        1 MOL      0.130169
    144 C47         7.0840    0.0830   -1.6850 c         1 MOL      0.357063
    145 O19         7.7360    1.0930   -1.3790 o         1 MOL     -0.495960
    146 C48         6.8630   -0.7210   -4.1150 c3        1 MOL     -0.352522
    147 H67         6.4500   -2.7600   -2.8400 hn        1 MOL      0.242298
    148 H68         8.6610   -0.8900   -2.7610 h1        1 MOL      0.089964
    149 H69         5.8150   -0.8040   -3.8130 hc        1 MOL      0.101457
    150 H70         7.0480    0.2970   -4.4420 hc        1 MOL      0.101457
    151 H71         7.2780   -1.4880   -4.7670 hc        1 MOL      0.101457
    152 N14         5.8690   -0.1800   -1.1160 n         1 MOL     -0.030674
    153 C49         5.4170    0.6380    0.0520 c3        1 MOL     -0.224575
    154 C50         6.3670    0.5030    1.2870 c         1 MOL      0.459542
    155 O20         6.6810    1.5400    1.8880 o         1 MOL     -0.547534
    156 C51         3.9530    0.4270    0.2140 c3        1 MOL      0.026926
    157 C52         3.0970    1.2960   -0.7070 c3        1 MOL     -0.272281
    158 C53         1.6690    0.8130   -0.8230 c         1 MOL      0.915182
    159 O21         0.7290    1.6310   -0.9260 o         1 MOL     -0.747753
    160 O22         1.3340   -0.3780   -0.9000 o         1 MOL     -0.747753
    161 H72         5.4570   -1.0970   -1.2300 hn        1 MOL     -0.012861
    162 H73         5.6090    1.6630   -0.2650 h1        1 MOL      0.133069
    163 H74         3.6910    0.6650    1.2540 hc        1 MOL      0.072144
    164 H75         3.6320   -0.6070    0.0430 hc        1 MOL      0.072144
    165 H76         3.5700    1.1920   -1.6830 hc        1 MOL      0.066844
    166 H77         3.1120    2.3100   -0.3100 hc        1 MOL      0.066844
    167 N15         6.7020   -0.7310    1.6260 n         1 MOL      0.002453
    168 C54         7.4650   -1.0250    2.8420 c3        1 MOL     -0.224741
    169 H78         7.1740   -0.3300    3.6300 h1        1 MOL      0.088957
    170 H79         7.2590   -2.0460    3.1640 h1        1 MOL      0.088957
    171 H80         8.5310   -0.9160    2.6380 h1        1 MOL      0.088957
    172 H81         6.2280   -1.4930    1.1740 hn        1 MOL      0.062860
    173 Ca1        -1.2010    0.2080   -1.7100 Ca        1 MOL      1.782810
    174 O23         0.8150    0.6860   -3.8370 oh        1 MOL     -0.846894
    175 H82         1.4970    1.1920   -4.2730 ho        1 MOL      0.401208
    176 H83         0.9620   -0.2100   -4.1180 ho        1 MOL      0.401208
    177 O24        -0.2490   -2.2010   -2.3120 oh        1 MOL     -0.846894
    178 H84        -0.4000   -3.1290   -2.5170 ho        1 MOL      0.401208
    179 H85         0.6790   -2.1520   -2.0950 ho        1 MOL      0.401208
    180 O25        -2.1730   -0.0930   -4.3220 oh        1 MOL     -0.846894
    181 H86        -2.2550   -0.4510   -5.2110 ho        1 MOL      0.401208
    182 H87        -2.1620    0.8530   -4.4420 ho        1 MOL      0.401208
@<TRIPOS>BOND
     1    1    2 1   
     2    1    4 1   
     3    1    5 1   
     4    1    6 1   
     5    2    3 2   
     6    2    7 1   
     7    7    8 1   
     8    7   15 1   
     9    8    9 1   
    10    8   11 1   
    11    8   16 1   
    12    9   10 2   
    13    9   19 1   
    14   11   12 1   
    15   11   17 1   
    16   11   18 1   
    17   12   13 1   
    18   12   14 1   
    19   19   20 1   
    20   19   28 1   
    21   20   21 1   
    22   20   23 1   
    23   20   29 1   
    24   21   22 2   
    25   21   41 1   
    26   23   24 1   
    27   23   30 1   
    28   23   31 1   
    29   24   25 1   
    30   24   32 1   
    31   24   33 1   
    32   25   26 1   
    33   25   34 1   
    34   25   35 1   
    35   26   27 1   
    36   26   36 1   
    37   26   37 1   
    38   27   38 1   
    39   27   39 1   
    40   27   40 1   
    41   41   42 1   
    42   41   49 1   
    43   42   43 1   
    44   42   45 1   
    45   42   50 1   
    46   43   44 2   
    47   43   53 1   
    48   45   46 1   
    49   45   51 1   
    50   45   52 1   
    51   46   47 1   
    52   46   48 1   
    53   53   54 1   
    54   53   57 1   
    55   54   55 1   
    56   54   58 1   
    57   54   59 1   
    58   55   56 2   
    59   55   60 1   
    60   60   61 1   
    61   60   68 1   
    62   61   62 1   
    63   61   64 1   
    64   61   69 1   
    65   62   63 2   
    66   62   74 1   
    67   64   65 1   
    68   64   70 1   
    69   64   71 1   
    70   65   66 1   
    71   65   67 2   
    72   66   72 1   
    73   66   73 1   
    74   74   75 1   
    75   74   78 1   
    76   75   76 1   
    77   75   79 1   
    78   75   80 1   
    79   76   77 2   
    80   76   81 1   
    81   81   82 1   
    82   81   93 1   
    83   82   83 1   
    84   82   85 1   
    85   82   94 1   
    86   83   84 2   
    87   83  102 1   
    88   85   86 1   
    89   85   95 1   
    90   85   96 1   
    91   86   87 ar  
    92   86   88 ar  
    93   87   89 ar  
    94   87   97 1   
    95   88   90 ar  
    96   88   98 1   
    97   89   91 ar  
    98   89   99 1   
    99   90   91 ar  
   100   90  100 1   
   101   91   92 1   
   102   92  101 1   
   103  102  103 1   
   104  102  110 1   
   105  103  104 1   
   106  103  106 1   
   107  103  111 1   
   108  104  105 2   
   109  104  121 1   
   110  106  107 1   
   111  106  108 1   
   112  106  112 1   
   113  107  109 1   
   114  107  113 1   
   115  107  114 1   
   116  108  115 1   
   117  108  116 1   
   118  108  117 1   
   119  109  118 1   
   120  109  119 1   
   121  109  120 1   
   122  121  122 1   
   123  121  127 1   
   124  122  123 1   
   125  122  125 1   
   126  122  128 1   
   127  123  124 2   
   128  123  132 1   
   129  125  126 1   
   130  125  129 1   
   131  125  130 1   
   132  126  131 1   
   133  132  133 1   
   134  132  137 1   
   135  133  134 1   
   136  133  136 1   
   137  133  138 1   
   138  134  135 2   
   139  134  142 1   
   140  136  139 1   
   141  136  140 1   
   142  136  141 1   
   143  142  143 1   
   144  142  147 1   
   145  143  144 1   
   146  143  146 1   
   147  143  148 1   
   148  144  145 2   
   149  144  152 1   
   150  146  149 1   
   151  146  150 1   
   152  146  151 1   
   153  152  153 1   
   154  152  161 1   
   155  153  154 1   
   156  153  156 1   
   157  153  162 1   
   158  154  155 2   
   159  154  167 1   
   160  156  157 1   
   161  156  163 1   
   162  156  164 1   
   163  157  158 1   
   164  157  165 1   
   165  157  166 1   
   166  158  159 1   
   167  158  160 1   
   168  167  168 1   
   169  167  172 1   
   170  168  169 1   
   171  168  170 1   
   172  168  171 1   
   173  174  175 1   
   174  174  176 1   
   175  177  178 1   
   176  177  179 1   
   177  180  181 1   
   178  180  182 1   
@<TRIPOS>SUBSTRUCTURE
     1 MOL         1 TEMP              0 ****  ****    0 ROOT
