@<TRIPOS>MOLECULE
MOL
  182   178     1     0     0
SMALL
resp


@<TRIPOS>ATOM
      1 C1          2.5830    2.0580    5.6470 c3        1 MOL     -0.321948
      2 C2          1.9430    2.2600    4.2000 c         1 MOL      0.775409
      3 O1          2.6630    2.7150    3.2960 o         1 MOL     -0.615288
      4 H1          2.2160    1.1280    6.0800 hc        1 MOL      0.076579
      5 H2          3.6690    2.0150    5.5630 hc        1 MOL      0.076579
      6 H3          2.3010    2.8920    6.2900 hc        1 MOL      0.076579
      7 N1          0.6740    1.8980    4.1710 n         1 MOL     -0.588004
      8 C3         -0.0710    1.9460    2.9280 c3        1 MOL      0.097528
      9 C4         -0.2020    3.3720    2.4210 c         1 MOL      0.437016
     10 O2         -0.7840    4.2190    3.0690 o         1 MOL     -0.540705
     11 C5         -1.4690    1.3290    3.1490 c3        1 MOL     -0.183853
     12 C6         -2.3100    1.3360    1.8770 c         1 MOL      0.907879
     13 O3         -1.9350    1.7980    0.7370 o         1 MOL     -0.829037
     14 O4         -3.4540    0.9170    1.9540 o         1 MOL     -0.829037
     15 H4          0.2300    1.3950    4.9160 hn        1 MOL      0.331424
     16 H5          0.4350    1.3320    2.1820 h1        1 MOL      0.023240
     17 H6         -1.9900    1.8240    3.9620 hc        1 MOL      0.057912
     18 H7         -1.2410    0.3210    3.4970 hc        1 MOL      0.057912
     19 N2          0.4890    3.6930    1.3000 n         1 MOL     -0.038119
     20 C7          0.6640    5.0470    0.6890 c3        1 MOL     -0.191454
     21 C8         -0.6040    5.6850   -0.0030 c         1 MOL      0.483313
     22 O5         -0.6140    6.9360   -0.1050 o         1 MOL     -0.577928
     23 C9          1.7930    5.0400   -0.3780 c3        1 MOL     -0.074413
     24 C10         3.1810    4.8850    0.2260 c3        1 MOL     -0.074817
     25 C11         4.3170    4.8310   -0.8150 c3        1 MOL     -0.038081
     26 C12         4.7410    6.2290   -1.3250 c3        1 MOL     -0.010446
     27 N3          5.2640    6.1450   -2.7140 n4        1 MOL     -0.426459
     28 H8          1.0410    2.9000    1.0060 hn        1 MOL      0.155089
     29 H9          1.0040    5.7680    1.4270 h1        1 MOL      0.120248
     30 H10         1.8040    5.9940   -0.8910 hc        1 MOL      0.032191
     31 H11         1.5020    4.3070   -1.1360 hc        1 MOL      0.032191
     32 H12         3.2300    3.9940    0.8590 hc        1 MOL      0.079955
     33 H13         3.4700    5.6800    0.9110 hc        1 MOL      0.079955
     34 H14         3.9050    4.2070   -1.6030 hc        1 MOL      0.057869
     35 H15         5.2050    4.3030   -0.4740 hc        1 MOL      0.057869
     36 H16         5.5380    6.6610   -0.7120 hx        1 MOL      0.104584
     37 H17         3.8240    6.8180   -1.3720 hx        1 MOL      0.104584
     38 H18         5.6380    7.0350   -3.0330 hn        1 MOL      0.346899
     39 H19         5.9180    5.3740   -2.6870 hn        1 MOL      0.346899
     40 H20         4.4770    6.0260   -3.3330 hn        1 MOL      0.346899
     41 N4         -1.5400    4.8920   -0.4180 n         1 MOL     -0.183215
     42 C13        -2.7400    5.4440   -1.0870 c3        1 MOL      0.071593
     43 C14        -4.0550    5.0990   -0.3870 c         1 MOL      0.343791
     44 O6         -5.0630    5.7150   -0.8130 o         1 MOL     -0.523708
     45 C15        -2.8160    4.9220   -2.5050 c3        1 MOL     -0.353238
     46 C16        -2.5190    3.4580   -2.8450 c         1 MOL      0.861090
     47 O7         -2.1880    3.1650   -3.9960 o         1 MOL     -0.737282
     48 O8         -2.6280    2.5410   -2.0230 o         1 MOL     -0.737282
     49 H21        -1.4130    3.9420   -0.1010 hn        1 MOL      0.044856
     50 H22        -2.6050    6.5210   -0.9810 h1        1 MOL      0.127200
     51 H23        -2.1260    5.5510   -3.0660 hc        1 MOL      0.092782
     52 H24        -3.8250    5.1250   -2.8690 hc        1 MOL      0.092782
     53 N5         -4.1100    4.2600    0.6170 n         1 MOL     -0.130847
     54 C17        -5.3050    3.8520    1.2570 c3        1 MOL     -0.201581
     55 C18        -6.0500    2.6810    0.6350 c         1 MOL      0.510301
     56 O9         -7.2780    2.6120    0.7980 o         1 MOL     -0.588187
     57 H25        -3.2430    3.8250    0.9000 hn        1 MOL      0.210583
     58 H26        -6.0770    4.6240    1.1920 h1        1 MOL      0.111997
     59 H27        -5.0370    3.6940    2.2930 h1        1 MOL      0.111997
     60 N6         -5.4550    1.9570   -0.2640 n         1 MOL     -0.096511
     61 C19        -6.2500    0.9680   -1.0480 c3        1 MOL     -0.181903
     62 C20        -6.4850   -0.3280   -0.2250 c         1 MOL      0.303047
     63 O10        -7.2240   -1.2440   -0.7440 o         1 MOL     -0.480431
     64 C21        -5.4790    0.6050   -2.3510 c3        1 MOL     -0.203577
     65 C22        -4.3990   -0.4270   -2.1930 c         1 MOL      0.515189
     66 N7         -4.3600   -1.3740   -3.0960 n         1 MOL     -0.732552
     67 O11        -3.5730   -0.3720   -1.2810 o         1 MOL     -0.658474
     68 H28        -4.4620    2.0550   -0.4050 hn        1 MOL      0.221786
     69 H29        -7.2130    1.3850   -1.3330 h1        1 MOL      0.176173
     70 H30        -5.0010    1.5560   -2.5960 hc        1 MOL      0.110547
     71 H31        -6.1470    0.3460   -3.1790 hc        1 MOL      0.110547
     72 H32        -5.0550   -1.6060   -3.7850 hn        1 MOL      0.372493
     73 H33        -3.5110   -1.9230   -3.1550 hn        1 MOL      0.372493
     74 N8         -6.0750   -0.3810    1.0160 n         1 MOL     -0.074862
     75 C23        -6.3390   -1.5760    1.8320 c3        1 MOL     -0.481951
     76 C24        -5.2690   -2.5990    1.7870 c         1 MOL      0.752961
     77 O12        -5.3550   -3.6880    2.3290 o         1 MOL     -0.562855
     78 H34        -5.6980    0.4240    1.4830 hn        1 MOL      0.263676
     79 H35        -7.1790   -2.1490    1.4440 h1        1 MOL      0.177004
     80 H36        -6.5460   -1.3460    2.8760 h1        1 MOL      0.177004
     81 N9         -4.1700   -2.1990    1.1020 n         1 MOL     -0.936834
     82 C25        -3.0020   -3.0910    0.9900 c3        1 MOL      0.150469
     83 C26        -1.6570   -2.4240    1.2030 c         1 MOL      0.746926
     84 O13        -1.4020   -1.3230    0.7580 o         1 MOL     -0.790022
     85 C27        -3.2230   -3.7690   -0.3130 c3        1 MOL      0.092080
     86 C28        -4.4900   -4.6540   -0.4590 ca        1 MOL     -0.120157
     87 C29        -5.6030   -4.1140   -1.1280 ca        1 MOL     -0.065519
     88 C30        -4.5740   -5.9730    0.0150 ca        1 MOL     -0.065519
     89 C31        -6.8250   -4.8110   -1.1920 ca        1 MOL     -0.346181
     90 C32        -5.7890   -6.6950   -0.0680 ca        1 MOL     -0.346181
     91 C33        -6.9510   -6.0830   -0.6370 ca        1 MOL      0.474784
     92 O14        -8.0790   -6.8390   -0.8480 oh        1 MOL     -0.543926
     93 H37        -4.1850   -1.4150    0.4720 hn        1 MOL      0.945829
     94 H38        -3.0560   -3.8360    1.7860 h1        1 MOL      0.061405
     95 H39        -2.3650   -4.3880   -0.5740 hc        1 MOL     -0.037399
     96 H40        -3.3360   -3.0150   -1.0970 hc        1 MOL     -0.037399
     97 H41        -5.5320   -3.1220   -1.5480 ha        1 MOL      0.106394
     98 H42        -3.6950   -6.4150    0.4720 ha        1 MOL      0.106394
     99 H43        -7.6010   -4.3180   -1.7570 ha        1 MOL      0.158455
    100 H44        -5.9060   -7.6550    0.4110 ha        1 MOL      0.158455
    101 H45        -8.1070   -7.7240   -0.4660 ho        1 MOL      0.376165
    102 N10        -0.6990   -3.1820    1.7760 n         1 MOL     -0.714292
    103 C34         0.7320   -2.8260    1.6560 c3        1 MOL      0.213149
    104 C35         1.4250   -3.7590    0.6600 c         1 MOL      0.378864
    105 O15         1.5260   -4.9510    0.9230 o         1 MOL     -0.525233
    106 C36         1.4160   -2.8310    3.0420 c3        1 MOL      0.303835
    107 C37         0.5630   -2.0600    4.0980 c3        1 MOL      0.359833
    108 C38         2.7740   -2.1840    2.9880 c3        1 MOL     -0.384526
    109 C39         0.9250   -2.5180    5.5040 c3        1 MOL     -0.252232
    110 H46        -0.9690   -4.0990    2.0920 hn        1 MOL      0.321932
    111 H47         0.7560   -1.8030    1.2950 h1        1 MOL      0.046176
    112 H48         1.4410   -3.9040    3.2590 hc        1 MOL     -0.057083
    113 H49        -0.4880   -2.2880    3.9820 hc        1 MOL     -0.095985
    114 H50         0.7080   -0.9870    3.9520 hc        1 MOL     -0.095985
    115 H51         2.7750   -1.1010    3.0290 hc        1 MOL      0.052134
    116 H52         3.3600   -2.6230    3.7970 hc        1 MOL      0.052134
    117 H53         3.3170   -2.4970    2.0950 hc        1 MOL      0.052134
    118 H54         1.9840   -2.3240    5.6450 hc        1 MOL      0.039618
    119 H55         0.4060   -1.8210    6.1720 hc        1 MOL      0.039618
    120 H56         0.5910   -3.5500    5.6250 hc        1 MOL      0.039618
    121 N11         1.9910   -3.2270   -0.4220 n         1 MOL     -0.132546
    122 C40         2.9100   -3.8600   -1.3270 c3        1 MOL     -0.206276
    123 C41         4.3000   -3.7010   -0.8360 c         1 MOL      0.527852
    124 O16         4.6360   -2.6920   -0.2440 o         1 MOL     -0.384406
    125 C42         2.7370   -3.3590   -2.7720 c3        1 MOL      0.177363
    126 O17         2.9490   -1.9920   -2.8230 oh        1 MOL     -0.577553
    127 H57         1.7910   -2.2540   -0.5950 hn        1 MOL      0.229194
    128 H58         2.6980   -4.9340   -1.3270 h1        1 MOL      0.071662
    129 H59         1.7070   -3.5320   -3.0700 h1        1 MOL      0.024880
    130 H60         3.4170   -3.8910   -3.4290 h1        1 MOL      0.024880
    131 H61         2.5030   -1.5280   -2.1110 ho        1 MOL      0.383876
    132 N12         5.2050   -4.6160   -1.1070 n         1 MOL     -0.468247
    133 C43         6.7170   -4.5330   -0.7740 c3        1 MOL      0.107139
    134 C44         7.3440   -3.1750   -1.0730 c         1 MOL      0.555033
    135 O18         8.0770   -2.6150   -0.2640 o         1 MOL     -0.524151
    136 C45         7.4130   -5.6410   -1.5740 c3        1 MOL     -0.349852
    137 H62         4.8470   -5.3960   -1.6510 hn        1 MOL      0.308775
    138 H63         6.8680   -4.7470    0.2850 h1        1 MOL      0.096231
    139 H64         8.4750   -5.3810   -1.5840 hc        1 MOL      0.110097
    140 H65         7.2840   -6.6090   -1.0970 hc        1 MOL      0.110097
    141 H66         6.9830   -5.6990   -2.5730 hc        1 MOL      0.110097
    142 N13         6.8680   -2.5200   -2.1530 n         1 MOL     -0.532920
    143 C46         7.3040   -1.1640   -2.5430 c3        1 MOL      0.185846
    144 C47         7.0370   -0.1170   -1.5030 c         1 MOL      0.290023
    145 O19         7.6320    0.9520   -1.4490 o         1 MOL     -0.533871
    146 C48         6.5940   -0.8310   -3.8320 c3        1 MOL     -0.259393
    147 H67         6.1770   -2.9230   -2.7760 hn        1 MOL      0.319166
    148 H68         8.3620   -1.2100   -2.8250 h1        1 MOL      0.075185
    149 H69         6.8070   -1.5880   -4.5840 hc        1 MOL      0.073087
    150 H70         5.5220   -0.7040   -3.6990 hc        1 MOL      0.073087
    151 H71         7.0370    0.0910   -4.2080 hc        1 MOL      0.073087
    152 N14         6.0360   -0.4050   -0.6280 n         1 MOL      0.104178
    153 C49         5.4940    0.5580    0.3830 c3        1 MOL     -0.043779
    154 C50         6.2410    0.3530    1.7370 c         1 MOL      0.472381
    155 O20         6.4790    1.4090    2.3240 o         1 MOL     -0.551160
    156 C51         4.0140    0.3310    0.5420 c3        1 MOL      0.094703
    157 C52         3.3530    0.8380   -0.7080 c3        1 MOL      0.000686
    158 C53         1.8770    0.6100   -0.7670 c         1 MOL      0.708177
    159 O21         1.4330   -0.4820   -1.2710 o         1 MOL     -0.693383
    160 O22         1.0760    1.4420   -0.2660 o         1 MOL     -0.693383
    161 H72         5.6520   -1.3350   -0.5660 hn        1 MOL     -0.044258
    162 H73         5.7190    1.6040    0.1600 h1        1 MOL      0.058262
    163 H74         3.7610    0.9660    1.3880 hc        1 MOL     -0.002577
    164 H75         3.6660   -0.6750    0.7460 hc        1 MOL     -0.002577
    165 H76         3.8320    0.3680   -1.5670 hc        1 MOL     -0.070484
    166 H77         3.5090    1.9110   -0.7940 hc        1 MOL     -0.070484
    167 N15         6.6590   -0.8350    2.0350 n         1 MOL     -0.170966
    168 C54         7.6840   -1.0920    3.0410 c3        1 MOL     -0.230127
    169 H78         7.3570   -1.9000    3.6960 h1        1 MOL      0.105369
    170 H79         8.6140   -1.3780    2.5490 h1        1 MOL      0.105369
    171 H80         7.8480   -0.1900    3.6310 h1        1 MOL      0.105369
    172 H81         6.2240   -1.5810    1.5090 hn        1 MOL      0.194204
    173 Ca1        -1.1910    0.5230   -1.3920 Ca        1 MOL      1.824428
    174 O23        -2.0900    0.5170   -3.9420 oh        1 MOL     -0.887252
    175 H82        -2.6630    0.3070   -4.6840 ho        1 MOL      0.418664
    176 H83        -2.0360    1.4690   -3.9570 ho        1 MOL      0.418664
    177 O24        -0.9980   -1.8550   -2.7650 oh        1 MOL     -0.887252
    178 H84        -1.2370   -1.6680   -3.6760 ho        1 MOL      0.418664
    179 H85        -0.5610   -2.7030   -2.8110 ho        1 MOL      0.418664
    180 O25         0.6260    1.5820   -3.1100 oh        1 MOL     -0.887252
    181 H86         0.4570    2.4110   -3.5590 ho        1 MOL      0.418664
    182 H87         1.5390    1.4000   -3.2910 ho        1 MOL      0.418664
@<TRIPOS>BOND
     1    1    2 1   
     2    1    4 1   
     3    1    5 1   
     4    1    6 1   
     5    2    3 2   
     6    2    7 1   
     7    7    8 1   
     8    7   15 1   
     9    8    9 1   
    10    8   11 1   
    11    8   16 1   
    12    9   10 2   
    13    9   19 1   
    14   11   12 1   
    15   11   17 1   
    16   11   18 1   
    17   12   13 1   
    18   12   14 1   
    19   19   20 1   
    20   19   28 1   
    21   20   21 1   
    22   20   23 1   
    23   20   29 1   
    24   21   22 2   
    25   21   41 1   
    26   23   24 1   
    27   23   30 1   
    28   23   31 1   
    29   24   25 1   
    30   24   32 1   
    31   24   33 1   
    32   25   26 1   
    33   25   34 1   
    34   25   35 1   
    35   26   27 1   
    36   26   36 1   
    37   26   37 1   
    38   27   38 1   
    39   27   39 1   
    40   27   40 1   
    41   41   42 1   
    42   41   49 1   
    43   42   43 1   
    44   42   45 1   
    45   42   50 1   
    46   43   44 2   
    47   43   53 1   
    48   45   46 1   
    49   45   51 1   
    50   45   52 1   
    51   46   47 1   
    52   46   48 1   
    53   53   54 1   
    54   53   57 1   
    55   54   55 1   
    56   54   58 1   
    57   54   59 1   
    58   55   56 2   
    59   55   60 1   
    60   60   61 1   
    61   60   68 1   
    62   61   62 1   
    63   61   64 1   
    64   61   69 1   
    65   62   63 2   
    66   62   74 1   
    67   64   65 1   
    68   64   70 1   
    69   64   71 1   
    70   65   66 1   
    71   65   67 2   
    72   66   72 1   
    73   66   73 1   
    74   74   75 1   
    75   74   78 1   
    76   75   76 1   
    77   75   79 1   
    78   75   80 1   
    79   76   77 2   
    80   76   81 1   
    81   81   82 1   
    82   81   93 1   
    83   82   83 1   
    84   82   85 1   
    85   82   94 1   
    86   83   84 2   
    87   83  102 1   
    88   85   86 1   
    89   85   95 1   
    90   85   96 1   
    91   86   87 ar  
    92   86   88 ar  
    93   87   89 ar  
    94   87   97 1   
    95   88   90 ar  
    96   88   98 1   
    97   89   91 ar  
    98   89   99 1   
    99   90   91 ar  
   100   90  100 1   
   101   91   92 1   
   102   92  101 1   
   103  102  103 1   
   104  102  110 1   
   105  103  104 1   
   106  103  106 1   
   107  103  111 1   
   108  104  105 2   
   109  104  121 1   
   110  106  107 1   
   111  106  108 1   
   112  106  112 1   
   113  107  109 1   
   114  107  113 1   
   115  107  114 1   
   116  108  115 1   
   117  108  116 1   
   118  108  117 1   
   119  109  118 1   
   120  109  119 1   
   121  109  120 1   
   122  121  122 1   
   123  121  127 1   
   124  122  123 1   
   125  122  125 1   
   126  122  128 1   
   127  123  124 2   
   128  123  132 1   
   129  125  126 1   
   130  125  129 1   
   131  125  130 1   
   132  126  131 1   
   133  132  133 1   
   134  132  137 1   
   135  133  134 1   
   136  133  136 1   
   137  133  138 1   
   138  134  135 2   
   139  134  142 1   
   140  136  139 1   
   141  136  140 1   
   142  136  141 1   
   143  142  143 1   
   144  142  147 1   
   145  143  144 1   
   146  143  146 1   
   147  143  148 1   
   148  144  145 2   
   149  144  152 1   
   150  146  149 1   
   151  146  150 1   
   152  146  151 1   
   153  152  153 1   
   154  152  161 1   
   155  153  154 1   
   156  153  156 1   
   157  153  162 1   
   158  154  155 2   
   159  154  167 1   
   160  156  157 1   
   161  156  163 1   
   162  156  164 1   
   163  157  158 1   
   164  157  165 1   
   165  157  166 1   
   166  158  159 1   
   167  158  160 1   
   168  167  168 1   
   169  167  172 1   
   170  168  169 1   
   171  168  170 1   
   172  168  171 1   
   173  174  175 1   
   174  174  176 1   
   175  177  178 1   
   176  177  179 1   
   177  180  181 1   
   178  180  182 1   
@<TRIPOS>SUBSTRUCTURE
     1 MOL         1 TEMP              0 ****  ****    0 ROOT
