@<TRIPOS>MOLECULE
MOL
  175   173     1     0     0
SMALL
resp


@<TRIPOS>ATOM
      1 C1          0.6430    3.8180    5.1890 c3        1 MOL     -0.353912
      2 C2         -0.1320    3.6880    3.8550 c         1 MOL      0.781301
      3 O1          0.4830    3.7410    2.8320 o         1 MOL     -0.549059
      4 H1          1.6300    4.2390    4.9960 hc        1 MOL      0.077271
      5 H2          0.0950    4.4750    5.8660 hc        1 MOL      0.077271
      6 H3          0.7500    2.8340    5.6450 hc        1 MOL      0.077271
      7 N1         -1.4330    3.5320    3.9450 n         1 MOL     -0.769993
      8 C3         -2.1950    3.2640    2.6730 c3        1 MOL      0.344886
      9 C4         -2.4170    4.5970    1.9190 c         1 MOL      0.565262
     10 O2         -2.6050    5.6820    2.4670 o         1 MOL     -0.596334
     11 C5         -3.5990    2.5820    2.9560 c3        1 MOL     -0.345310
     12 C6         -4.3070    2.0630    1.6860 c         1 MOL      0.629157
     13 O3         -3.6320    1.8110    0.6810 o         1 MOL     -0.643407
     14 O4         -5.5720    2.0470    1.5860 o         1 MOL     -0.643407
     15 H4         -1.8510    3.7860    4.8290 hn        1 MOL      0.356370
     16 H5         -1.5660    2.5910    2.0940 h1        1 MOL     -0.086090
     17 H6         -4.2980    3.2900    3.4290 hc        1 MOL      0.082476
     18 H7         -3.4080    1.7100    3.5860 hc        1 MOL      0.082476
     19 N2         -2.4890    4.5100    0.6090 n         1 MOL     -0.332105
     20 C7         -2.7660    5.5740   -0.3270 c3        1 MOL      0.109754
     21 C8         -3.6660    5.1520   -1.4630 c         1 MOL      0.578801
     22 O5         -4.0660    5.9330   -2.3050 o         1 MOL     -0.589604
     23 C9         -1.3960    6.0170   -0.7860 c3        1 MOL     -0.163976
     24 H8         -2.2180    3.6030    0.2630 hn        1 MOL      0.193642
     25 H9         -3.2930    6.3410    0.2460 h1        1 MOL      0.047923
     26 H10        -0.7910    5.1740   -1.1120 hc        1 MOL      0.040710
     27 H11        -1.5240    6.8000   -1.5340 hc        1 MOL      0.040710
     28 H12        -0.8780    6.4160    0.0870 hc        1 MOL      0.040710
     29 N3         -4.1190    3.8970   -1.4910 n         1 MOL     -0.603499
     30 C10        -4.8810    3.4140   -2.6690 c3        1 MOL      0.402199
     31 C11        -6.1630    2.6240   -2.2720 c         1 MOL      0.248675
     32 O6         -7.0950    2.5520   -3.1590 o         1 MOL     -0.573029
     33 C12        -3.9570    2.5370   -3.4970 c3        1 MOL     -0.287254
     34 C13        -3.3050    1.3770   -2.7380 c         1 MOL      0.762540
     35 O7         -2.0800    1.3050   -2.7120 o         1 MOL     -0.713689
     36 O8         -3.9720    0.5810   -2.0540 o         1 MOL     -0.713689
     37 H13        -3.7740    3.2080   -0.8370 hn        1 MOL      0.377820
     38 H14        -5.2570    4.2410   -3.2580 h1        1 MOL      0.029957
     39 H15        -3.2350    3.2940   -3.8060 hc        1 MOL      0.052410
     40 H16        -4.5250    2.2330   -4.3850 hc        1 MOL      0.052410
     41 N4         -6.3260    2.0240   -1.0650 n         1 MOL     -0.072715
     42 C14        -7.5220    1.2890   -0.7710 c3        1 MOL     -0.097406
     43 C15        -7.4040   -0.1640   -1.0820 c         1 MOL      0.475276
     44 O9         -8.3500   -0.9230   -0.7720 o         1 MOL     -0.650356
     45 H17        -5.5680    2.1130   -0.4140 hn        1 MOL      0.055240
     46 H18        -8.4200    1.6160   -1.2960 h1        1 MOL      0.092327
     47 H19        -7.8430    1.3830    0.2670 h1        1 MOL      0.092327
     48 N5         -6.3110   -0.7120   -1.5810 n         1 MOL     -0.154530
     49 C16        -6.2620   -2.0300   -2.1410 c3        1 MOL      0.021558
     50 C17        -6.0750   -3.1180   -1.0740 c         1 MOL      0.420307
     51 O10        -6.0080   -4.2930   -1.4660 o         1 MOL     -0.533120
     52 C18        -5.1780   -2.1830   -3.1910 c3        1 MOL     -0.210747
     53 C19        -3.7600   -2.2660   -2.5580 c         1 MOL      0.689909
     54 N6         -2.7870   -2.3780   -3.4470 n         1 MOL     -0.629112
     55 O11        -3.5450   -2.1400   -1.3800 o         1 MOL     -0.752261
     56 H20        -5.5390   -0.0740   -1.7190 hn        1 MOL      0.169724
     57 H21        -7.2160   -2.1900   -2.6440 h1        1 MOL      0.094256
     58 H22        -5.3040   -1.3260   -3.8550 hc        1 MOL      0.061373
     59 H23        -5.2930   -3.0850   -3.7960 hc        1 MOL      0.061373
     60 H24        -3.1000   -2.4420   -4.4040 hn        1 MOL      0.320497
     61 H25        -1.8600   -2.3740   -3.0450 hn        1 MOL      0.320497
     62 N7         -6.0850   -2.8410    0.2430 n         1 MOL     -0.213171
     63 C20        -6.0430   -3.9120    1.2020 c3        1 MOL     -0.243881
     64 C21        -4.7380   -4.4770    1.7200 c         1 MOL      0.469099
     65 O12        -4.7540   -5.1790    2.7670 o         1 MOL     -0.605524
     66 H26        -6.0820   -1.8660    0.5290 hn        1 MOL      0.251075
     67 H27        -6.6230   -4.7530    0.8320 h1        1 MOL      0.112793
     68 H28        -6.5020   -3.5990    2.1430 h1        1 MOL      0.112793
     69 N8         -3.6730   -4.0580    1.1820 n         1 MOL     -0.151814
     70 C22        -2.3170   -4.6350    1.3810 c3        1 MOL     -0.384695
     71 C23        -1.2760   -3.5370    1.4130 c         1 MOL      0.690147
     72 O13        -1.4950   -2.5270    0.8070 o         1 MOL     -0.525925
     73 C24        -1.9380   -5.6920    0.3280 c3        1 MOL      0.432723
     74 C25        -2.8390   -6.9150    0.3910 c3        1 MOL     -0.365737
     75 O14        -2.2280   -5.1840   -0.9210 oh        1 MOL     -0.610235
     76 H29        -3.8320   -3.3570    0.4750 hn        1 MOL      0.369398
     77 H30        -2.1980   -5.2120    2.2920 h1        1 MOL      0.122463
     78 H31        -0.8910   -5.9710    0.4110 h1        1 MOL     -0.010895
     79 H32        -1.8890   -4.3030   -1.1030 ho        1 MOL      0.381764
     80 H33        -2.5710   -7.8140   -0.1670 hc        1 MOL      0.100901
     81 H34        -2.9120   -7.3640    1.3830 hc        1 MOL      0.100901
     82 H35        -3.8190   -6.6470   -0.0030 hc        1 MOL      0.100901
     83 N9         -0.1030   -3.6690    2.0540 n         1 MOL     -0.469936
     84 C26         0.9560   -2.6550    2.0870 c3        1 MOL     -0.054965
     85 C27         1.6990   -2.8610    0.7750 c         1 MOL      0.476596
     86 O15         2.3590   -3.9180    0.5400 o         1 MOL     -0.605546
     87 C28         1.8370   -2.7700    3.3730 c3        1 MOL      0.240282
     88 C29         1.1040   -2.4390    4.6660 c3        1 MOL      0.023144
     89 C30         3.1320   -1.9860    3.3740 c3        1 MOL     -0.135930
     90 C31         1.7720   -3.0590    5.9020 c3        1 MOL     -0.113670
     91 H36        -0.0410   -4.4210    2.7260 hn        1 MOL      0.263710
     92 H37         0.5080   -1.6660    2.1000 h1        1 MOL      0.028567
     93 H38         2.1880   -3.7990    3.4930 hc        1 MOL     -0.039720
     94 H39         0.0650   -2.7400    4.5590 hc        1 MOL     -0.017303
     95 H40         1.0420   -1.3520    4.7240 hc        1 MOL     -0.017303
     96 H41         3.8470   -2.2600    4.1530 hc        1 MOL      0.026655
     97 H42         3.6380   -2.1170    2.4230 hc        1 MOL      0.026655
     98 H43         2.8790   -0.9280    3.4460 hc        1 MOL      0.026655
     99 H44         1.5360   -4.1210    5.9380 hc        1 MOL      0.022261
    100 H45         2.8470   -2.9690    6.0620 hc        1 MOL      0.022261
    101 H46         1.3510   -2.5970    6.7960 hc        1 MOL      0.022261
    102 N10         1.7110   -1.8700   -0.1300 n         1 MOL     -0.181331
    103 C32         2.5960   -1.8250   -1.3910 c3        1 MOL      0.162658
    104 C33         4.0470   -1.4050   -0.9650 c         1 MOL      0.441636
    105 O16         4.2030   -0.7330    0.0220 o         1 MOL     -0.259008
    106 C34         1.9230   -0.9580   -2.3910 c3        1 MOL     -0.297240
    107 C35         0.4260   -1.3520   -2.6890 c         1 MOL      0.722758
    108 O17        -0.4290   -1.1620   -1.7810 o         1 MOL     -0.650413
    109 O18         0.1270   -1.8720   -3.7670 o         1 MOL     -0.650413
    110 H47         1.0410   -1.1360    0.0380 hn        1 MOL      0.027906
    111 H48         2.6590   -2.8560   -1.7290 h1        1 MOL      0.049684
    112 H49         2.5650   -0.9940   -3.2750 hc        1 MOL      0.053718
    113 H50         1.9860    0.0290   -1.9280 hc        1 MOL      0.053718
    114 N11         5.0970   -1.6550   -1.8230 n         1 MOL     -0.876270
    115 C36         6.4930   -1.3240   -1.4800 c3        1 MOL      0.904993
    116 C37         6.7110    0.2070   -1.0920 c         1 MOL      0.009532
    117 O19         7.5070    0.3640   -0.1700 o         1 MOL     -0.494167
    118 C38         7.4180   -1.9370   -2.5420 c3        1 MOL     -0.392726
    119 C39         8.9010   -1.7500   -2.2210 ca        1 MOL      0.204649
    120 C40         9.4020   -2.3760   -1.0530 ca        1 MOL     -0.196794
    121 C41         9.8050   -1.1030   -3.0890 ca        1 MOL     -0.196794
    122 C42        10.7900   -2.3590   -0.7450 ca        1 MOL     -0.125019
    123 C43        11.1530   -1.1130   -2.8270 ca        1 MOL     -0.125019
    124 C44        11.6560   -1.6620   -1.6460 ca        1 MOL     -0.090595
    125 H51         4.9890   -2.1410   -2.7010 hn        1 MOL      0.363024
    126 H52         6.6860   -1.9110   -0.5830 h1        1 MOL     -0.058410
    127 H53         7.1500   -1.4630   -3.4800 hc        1 MOL      0.074189
    128 H54         7.1910   -2.9940   -2.5800 hc        1 MOL      0.074189
    129 H55         8.7850   -3.0370   -0.4630 ha        1 MOL      0.122772
    130 H56         9.3660   -0.6540   -3.9680 ha        1 MOL      0.122772
    131 H57        11.1240   -2.9120    0.1080 ha        1 MOL      0.117346
    132 H58        11.8770   -0.5860   -3.4400 ha        1 MOL      0.117346
    133 H59        12.7140   -1.7110   -1.4400 ha        1 MOL      0.088766
    134 N12         6.1890    1.2480   -1.7030 n         1 MOL      0.129026
    135 C45         6.4500    2.6510   -1.2830 c3        1 MOL      0.097251
    136 C46         5.6360    3.0640    0.0170 c         1 MOL      0.176439
    137 O20         5.9230    4.0260    0.7220 o         1 MOL     -0.488704
    138 C47         6.0380    3.5760   -2.4410 c3        1 MOL     -0.141884
    139 C48         5.8610    2.6160   -3.5500 c3        1 MOL     -0.066608
    140 C49         5.5270    1.2070   -3.0000 c3        1 MOL     -0.240715
    141 H60         7.5080    2.9080   -1.1570 h1        1 MOL      0.073317
    142 H61         5.0900    4.0770   -2.2710 hc        1 MOL      0.076061
    143 H62         6.8550    4.2400   -2.7100 hc        1 MOL      0.076061
    144 H63         4.9640    2.9880   -4.0330 hc        1 MOL      0.039965
    145 H64         6.6490    2.5670   -4.3030 hc        1 MOL      0.039965
    146 H65         4.4530    1.2560   -2.8180 h1        1 MOL      0.109383
    147 H66         5.9120    0.4490   -3.6770 h1        1 MOL      0.109383
    148 N13         4.6030    2.3360    0.3250 n         1 MOL      0.001312
    149 C50         3.9840    2.4390    1.6630 c3        1 MOL     -0.110248
    150 C51         4.8640    1.7620    2.7490 c         1 MOL      0.491552
    151 O21         5.0280    2.2640    3.8690 o         1 MOL     -0.572364
    152 C52         2.6010    1.7190    1.4810 c3        1 MOL     -0.057145
    153 C53         1.7230    2.2270    0.3260 c3        1 MOL     -0.265954
    154 C54         0.3300    1.5640    0.2890 c         1 MOL      0.676768
    155 O22        -0.5950    1.9920   -0.4140 o         1 MOL     -0.627036
    156 O23         0.1060    0.4370    0.8850 o         1 MOL     -0.627036
    157 H67         4.3380    1.5710   -0.2740 hn        1 MOL      0.136693
    158 H68         3.9010    3.4710    1.9810 h1        1 MOL      0.123014
    159 H69         2.1250    1.8520    2.4490 hc        1 MOL      0.045802
    160 H70         2.7060    0.6360    1.4890 hc        1 MOL      0.045802
    161 H71         2.2600    2.0970   -0.6080 hc        1 MOL      0.096847
    162 H72         1.5900    3.2860    0.5520 hc        1 MOL      0.096847
    163 N14         5.4420    0.6060    2.4200 n         1 MOL     -0.016991
    164 C55         6.3600   -0.2020    3.2960 c3        1 MOL     -0.240973
    165 H73         7.3900    0.1130    3.1290 h1        1 MOL      0.092933
    166 H74         6.0970   -0.0440    4.3420 h1        1 MOL      0.092933
    167 H75         6.2590   -1.2590    3.0500 h1        1 MOL      0.092933
    168 H76         5.1760    0.2300    1.5190 hn        1 MOL     -0.014224
    169 Ca1        -2.1430   -0.1210   -0.3420 Ca        1 MOL      1.731001
    170 O24        -1.6350    0.0740    2.8320 oh        1 MOL     -0.776200
    171 H77        -1.6740    0.3010    3.7640 ho        1 MOL      0.383430
    172 H78        -0.7500    0.3060    2.5670 ho        1 MOL      0.383430
    173 O25        -3.9630   -1.2120    1.5740 oh        1 MOL     -0.776200
    174 H79        -4.7940   -0.8050    1.8050 ho        1 MOL      0.383430
    175 H80        -3.5190   -1.3510    2.4110 ho        1 MOL      0.383430
@<TRIPOS>BOND
     1    1    2 1   
     2    1    4 1   
     3    1    5 1   
     4    1    6 1   
     5    2    3 2   
     6    2    7 1   
     7    7    8 1   
     8    7   15 1   
     9    8    9 1   
    10    8   11 1   
    11    8   16 1   
    12    9   10 2   
    13    9   19 1   
    14   11   12 1   
    15   11   17 1   
    16   11   18 1   
    17   12   13 1   
    18   12   14 1   
    19   19   20 1   
    20   19   24 1   
    21   20   21 1   
    22   20   23 1   
    23   20   25 1   
    24   21   22 2   
    25   21   29 1   
    26   23   26 1   
    27   23   27 1   
    28   23   28 1   
    29   29   30 1   
    30   29   37 1   
    31   30   31 1   
    32   30   33 1   
    33   30   38 1   
    34   31   32 2   
    35   31   41 1   
    36   33   34 1   
    37   33   39 1   
    38   33   40 1   
    39   34   35 1   
    40   34   36 1   
    41   41   42 1   
    42   41   45 1   
    43   42   43 1   
    44   42   46 1   
    45   42   47 1   
    46   43   44 2   
    47   43   48 1   
    48   48   49 1   
    49   48   56 1   
    50   49   50 1   
    51   49   52 1   
    52   49   57 1   
    53   50   51 2   
    54   50   62 1   
    55   52   53 1   
    56   52   58 1   
    57   52   59 1   
    58   53   54 1   
    59   53   55 2   
    60   54   60 1   
    61   54   61 1   
    62   62   63 1   
    63   62   66 1   
    64   63   64 1   
    65   63   67 1   
    66   63   68 1   
    67   64   65 2   
    68   64   69 1   
    69   69   70 1   
    70   69   76 1   
    71   70   71 1   
    72   70   73 1   
    73   70   77 1   
    74   71   72 2   
    75   71   83 1   
    76   73   74 1   
    77   73   75 1   
    78   73   78 1   
    79   74   80 1   
    80   74   81 1   
    81   74   82 1   
    82   75   79 1   
    83   83   84 1   
    84   83   91 1   
    85   84   85 1   
    86   84   87 1   
    87   84   92 1   
    88   85   86 2   
    89   85  102 1   
    90   87   88 1   
    91   87   89 1   
    92   87   93 1   
    93   88   90 1   
    94   88   94 1   
    95   88   95 1   
    96   89   96 1   
    97   89   97 1   
    98   89   98 1   
    99   90   99 1   
   100   90  100 1   
   101   90  101 1   
   102  102  103 1   
   103  102  110 1   
   104  103  104 1   
   105  103  106 1   
   106  103  111 1   
   107  104  105 2   
   108  104  114 1   
   109  106  107 1   
   110  106  112 1   
   111  106  113 1   
   112  107  108 1   
   113  107  109 1   
   114  114  115 1   
   115  114  125 1   
   116  115  116 1   
   117  115  118 1   
   118  115  126 1   
   119  116  117 2   
   120  116  134 1   
   121  118  119 1   
   122  118  127 1   
   123  118  128 1   
   124  119  120 ar  
   125  119  121 ar  
   126  120  122 ar  
   127  120  129 1   
   128  121  123 ar  
   129  121  130 1   
   130  122  124 ar  
   131  122  131 1   
   132  123  124 ar  
   133  123  132 1   
   134  124  133 1   
   135  134  135 1   
   136  134  140 1   
   137  135  136 1   
   138  135  138 1   
   139  135  141 1   
   140  136  137 2   
   141  136  148 1   
   142  138  139 1   
   143  138  142 1   
   144  138  143 1   
   145  139  140 1   
   146  139  144 1   
   147  139  145 1   
   148  140  146 1   
   149  140  147 1   
   150  148  149 1   
   151  148  157 1   
   152  149  150 1   
   153  149  152 1   
   154  149  158 1   
   155  150  151 2   
   156  150  163 1   
   157  152  153 1   
   158  152  159 1   
   159  152  160 1   
   160  153  154 1   
   161  153  161 1   
   162  153  162 1   
   163  154  155 1   
   164  154  156 1   
   165  163  164 1   
   166  163  168 1   
   167  164  165 1   
   168  164  166 1   
   169  164  167 1   
   170  170  171 1   
   171  170  172 1   
   172  173  174 1   
   173  173  175 1   
@<TRIPOS>SUBSTRUCTURE
     1 MOL         1 TEMP              0 ****  ****    0 ROOT
