@<TRIPOS>MOLECULE
MOL
  189   185     1     0     0
SMALL
resp


@<TRIPOS>ATOM
      1 C1          0.1520    4.0420   -4.4140 c3        1 MOL     -0.236045
      2 C2          0.6870    3.6030   -3.0300 c         1 MOL      0.497314
      3 O1          0.2070    3.9750   -1.9400 o         1 MOL     -0.547042
      4 H1         -0.1870    5.0770   -4.3610 hc        1 MOL      0.064594
      5 H2          0.9470    3.9580   -5.1550 hc        1 MOL      0.064594
      6 H3         -0.6820    3.4020   -4.7020 hc        1 MOL      0.064594
      7 N1          1.7260    2.7490   -3.1320 n         1 MOL     -0.418822
      8 C3          2.3880    2.2700   -1.9300 c3        1 MOL      0.228514
      9 C4          3.4110    3.2250   -1.2980 c         1 MOL      0.370446
     10 O2          4.6370    3.1140   -1.3980 o         1 MOL     -0.449014
     11 C5          3.1530    0.9390   -2.3340 c3        1 MOL     -0.325726
     12 C6          3.9220    0.2210   -1.2130 c         1 MOL      0.854172
     13 O3          3.6050    0.4760   -0.0120 o         1 MOL     -0.669242
     14 O4          4.8320   -0.5410   -1.5300 o         1 MOL     -0.669242
     15 H4          2.0360    2.3950   -4.0200 hn        1 MOL      0.306916
     16 H5          1.6050    2.0600   -1.2020 h1        1 MOL      0.007895
     17 H6          3.9100    1.2310   -3.0610 hc        1 MOL      0.046731
     18 H7          2.4930    0.1280   -2.6380 hc        1 MOL      0.046731
     19 N2          2.8900    4.2640   -0.6240 n         1 MOL     -0.415123
     20 C7          3.8070    5.2730    0.0370 c3        1 MOL      0.121579
     21 C8          4.5660    4.8060    1.3350 c         1 MOL      0.530393
     22 O5          5.0990    5.6740    2.0990 o         1 MOL     -0.575343
     23 C9          2.9010    6.4940    0.3130 c3        1 MOL     -0.265276
     24 C10         1.9980    6.9820   -0.8460 c3        1 MOL      0.337894
     25 C11         1.3660    8.3450   -0.4750 c3        1 MOL     -0.105251
     26 C12         0.6470    9.0420   -1.6160 c3        1 MOL     -0.093305
     27 N3         -0.4890    8.1780   -1.9710 n4        1 MOL     -0.228661
     28 H8          1.8970    4.4150   -0.5770 hn        1 MOL      0.322859
     29 H9          4.5790    5.5620   -0.6740 h1        1 MOL      0.070767
     30 H10         3.5890    7.3170    0.5060 hc        1 MOL      0.060582
     31 H11         2.3000    6.2680    1.1950 hc        1 MOL      0.060582
     32 H12         1.2180    6.2560   -1.0660 hc        1 MOL     -0.081997
     33 H13         2.5000    7.0090   -1.8060 hc        1 MOL     -0.081997
     34 H14         2.2320    8.9550   -0.2210 hc        1 MOL      0.058884
     35 H15         0.7290    8.3340    0.4110 hc        1 MOL      0.058884
     36 H16         1.2770    9.2130   -2.4870 hx        1 MOL      0.116011
     37 H17         0.2310    9.9540   -1.1940 hx        1 MOL      0.116011
     38 H18        -0.7260    7.5170   -1.2470 hn        1 MOL      0.296866
     39 H19        -1.2590    8.7630   -2.2940 hn        1 MOL      0.296866
     40 H20        -0.2970    7.5870   -2.7640 hn        1 MOL      0.296866
     41 N4          4.8280    3.5140    1.4880 n         1 MOL     -0.310625
     42 C13         5.5470    2.8750    2.5780 c3        1 MOL      0.075032
     43 C14         6.5280    1.7770    2.1220 c         1 MOL      0.293685
     44 O6          7.3730    1.3060    2.9090 o         1 MOL     -0.510685
     45 C15         4.5180    2.3150    3.5830 c3        1 MOL     -0.263232
     46 C16         3.5280    1.2250    2.9960 c         1 MOL      0.752869
     47 O7          2.3390    1.4790    2.7320 o         1 MOL     -0.720321
     48 O8          4.0290    0.0610    2.8470 o         1 MOL     -0.720321
     49 H21         4.4210    2.8910    0.8090 hn        1 MOL      0.123016
     50 H22         6.1730    3.6560    3.0020 h1        1 MOL      0.107524
     51 H23         3.9910    3.1110    4.1090 hc        1 MOL      0.068236
     52 H24         5.1250    1.7990    4.3340 hc        1 MOL      0.068236
     53 N5          6.5060    1.3450    0.8820 n         1 MOL     -0.001860
     54 C17         7.4040    0.4090    0.2480 c3        1 MOL     -0.176002
     55 C18         7.6780   -0.9640    0.9790 c         1 MOL      0.445611
     56 O9          8.8080   -1.4980    0.8650 o         1 MOL     -0.548956
     57 H25         5.9010    1.7980    0.2180 hn        1 MOL      0.096921
     58 H26         8.3530    0.9230    0.0790 h1        1 MOL      0.086045
     59 H27         6.9380    0.1900   -0.7150 h1        1 MOL      0.086045
     60 N6          6.5850   -1.5380    1.5090 n         1 MOL     -0.197576
     61 C19         6.6220   -3.0320    1.7220 c3        1 MOL     -0.081647
     62 C20         6.5440   -3.9300    0.4480 c         1 MOL      0.411737
     63 O10         6.6310   -5.2190    0.4830 o         1 MOL     -0.518611
     64 C21         5.4890   -3.3470    2.6780 c3        1 MOL     -0.189576
     65 C22         4.0730   -2.9310    2.2530 c         1 MOL      0.752967
     66 O11         3.8020   -2.8670    1.0120 o         1 MOL     -0.725887
     67 O12         3.1500   -2.7080    3.0460 o         1 MOL     -0.725887
     68 H28         5.7510   -0.9850    1.6250 hn        1 MOL      0.232449
     69 H29         7.6250   -3.1970    2.1290 h1        1 MOL      0.117510
     70 H30         5.7400   -2.6610    3.4900 hc        1 MOL      0.065309
     71 H31         5.5090   -4.3710    3.0320 hc        1 MOL      0.065309
     72 N7          6.3750   -3.2220   -0.6580 n         1 MOL     -0.207099
     73 C23         6.2120   -3.7950   -1.9810 c3        1 MOL      0.006238
     74 C24         4.8100   -4.2800   -2.4340 c         1 MOL      0.554588
     75 O13         4.7120   -5.1360   -3.2660 o         1 MOL     -0.563143
     76 H32         6.1160   -2.2440   -0.6530 hn        1 MOL      0.228916
     77 H33         6.9290   -4.6220   -2.0030 h1        1 MOL      0.035408
     78 H34         6.5770   -3.0480   -2.6810 h1        1 MOL      0.035408
     79 N8          3.7380   -3.7800   -1.7110 n         1 MOL     -0.277435
     80 C25         2.3160   -4.2050   -1.7620 c3        1 MOL     -0.042139
     81 C26         1.3240   -3.0740   -1.5200 c         1 MOL      0.551527
     82 O14         1.5930   -2.0430   -0.8630 o         1 MOL     -0.556789
     83 C27         2.0820   -5.2890   -0.6490 c3        1 MOL      0.502863
     84 C28         2.2450   -6.6540   -1.3210 c3        1 MOL     -0.515037
     85 O15         3.0190   -5.2430    0.3950 oh        1 MOL     -0.671798
     86 H35         3.9310   -2.9820   -1.1210 hn        1 MOL      0.131016
     87 H36         2.0590   -4.5220   -2.7710 h1        1 MOL      0.045431
     88 H37         1.0680   -5.0650   -0.3090 h1        1 MOL     -0.078104
     89 H38         3.2640   -4.3420    0.6130 ho        1 MOL      0.497022
     90 H39         1.9140   -7.4140   -0.6120 hc        1 MOL      0.124186
     91 H40         1.5680   -6.8140   -2.1660 hc        1 MOL      0.124186
     92 H41         3.2670   -6.8090   -1.6500 hc        1 MOL      0.124186
     93 N9          0.1760   -3.3030   -2.1680 n         1 MOL     -0.570930
     94 C29        -0.9950   -2.3660   -2.2190 c3        1 MOL      0.055783
     95 C30        -2.3350   -3.0100   -1.7830 c         1 MOL      0.414238
     96 O16        -2.7020   -4.0750   -2.2860 o         1 MOL     -0.534815
     97 C31        -1.1200   -1.7180   -3.5760 c3        1 MOL      0.141456
     98 C32         0.1400   -0.8500   -3.9530 c3        1 MOL      0.159206
     99 C33        -2.4350   -0.9830   -3.7620 c3        1 MOL     -0.374857
    100 C34         0.2360   -0.4510   -5.4950 c3        1 MOL     -0.077144
    101 H42         0.1860   -4.1340   -2.7370 hn        1 MOL      0.323363
    102 H43        -0.8260   -1.5670   -1.5000 h1        1 MOL     -0.009894
    103 H44        -1.2690   -2.5140   -4.3060 hc        1 MOL      0.005189
    104 H45         1.0680   -1.3750   -3.7180 hc        1 MOL     -0.022376
    105 H46         0.1990    0.0750   -3.3880 hc        1 MOL     -0.022376
    106 H47        -2.6570   -0.3030   -2.9430 hc        1 MOL      0.060990
    107 H48        -2.5040   -0.5200   -4.7450 hc        1 MOL      0.060990
    108 H49        -3.2900   -1.6590   -3.8400 hc        1 MOL      0.060990
    109 H50         1.1330    0.1390   -5.6810 hc        1 MOL      0.012246
    110 H51         0.3070   -1.3430   -6.1140 hc        1 MOL      0.012246
    111 H52        -0.6240    0.1580   -5.7660 hc        1 MOL      0.012246
    112 N10        -3.1260   -2.4110   -0.8870 n         1 MOL     -0.103399
    113 C35        -4.4130   -2.9450   -0.4760 c3        1 MOL     -0.009006
    114 C36        -5.6470   -2.1940   -1.0580 c         1 MOL      0.302625
    115 O17        -5.5890   -1.1090   -1.6000 o         1 MOL     -0.331135
    116 C37        -4.5460   -2.8480    1.0940 c3        1 MOL      0.085073
    117 C38        -3.4420   -3.6170    1.8080 c3        1 MOL     -0.363966
    118 O18        -4.4390   -1.5090    1.3630 oh        1 MOL     -0.481745
    119 H53        -2.8030   -1.5360   -0.4810 hn        1 MOL      0.357375
    120 H54        -4.4990   -3.9710   -0.8340 h1        1 MOL      0.058596
    121 H55        -5.5030   -3.2680    1.3800 h1        1 MOL      0.076668
    122 H56        -3.5370   -1.2130    1.4790 ho        1 MOL      0.362257
    123 H57        -3.5140   -4.6790    1.6040 hc        1 MOL      0.094952
    124 H58        -2.4350   -3.3000    1.5250 hc        1 MOL      0.094952
    125 H59        -3.5320   -3.5250    2.8900 hc        1 MOL      0.094952
    126 N11        -6.8130   -2.6540   -0.5680 n         1 MOL     -0.216640
    127 C39        -8.1120   -1.8940   -0.7460 c3        1 MOL     -0.226682
    128 C40        -8.0500   -0.4230   -0.2820 c         1 MOL      0.442326
    129 O19        -8.3220    0.5180   -1.0520 o         1 MOL     -0.498437
    130 C41        -9.3210   -2.4700   -0.0260 c3        1 MOL      0.267415
    131 C42        -9.7090   -3.8730   -0.5480 c3        1 MOL     -0.413493
    132 O20        -8.9430   -2.6150    1.2980 oh        1 MOL     -0.672558
    133 H60        -6.8780   -3.5640   -0.1320 hn        1 MOL      0.252307
    134 H61        -8.3430   -1.8590   -1.8120 h1        1 MOL      0.149751
    135 H62       -10.1120   -1.7180   -0.0840 h1        1 MOL      0.074530
    136 H63        -9.5600   -3.2270    1.6950 ho        1 MOL      0.433061
    137 H64       -10.6750   -4.1850   -0.1480 hc        1 MOL      0.122462
    138 H65        -9.7890   -3.9200   -1.6350 hc        1 MOL      0.122462
    139 H66        -8.8980   -4.5380   -0.2460 hc        1 MOL      0.122462
    140 N12        -7.4270   -0.1560    0.8760 n         1 MOL     -0.230831
    141 C43        -7.1350    1.1640    1.4380 c3        1 MOL     -0.068108
    142 C44        -6.2370    2.0730    0.6090 c         1 MOL      0.357286
    143 O21        -6.5390    3.2250    0.4010 o         1 MOL     -0.491712
    144 C45        -6.5370    0.9920    2.8520 c3        1 MOL     -0.085177
    145 C46        -7.4250    0.1660    3.7900 c3        1 MOL      0.063988
    146 C47        -6.8100    0.1730    5.2140 c3        1 MOL     -0.032148
    147 C48        -7.0620    1.5680    5.8070 c3        1 MOL      0.121937
    148 N13        -6.3530    1.6300    7.0960 n4        1 MOL     -0.448853
    149 H67        -7.1420   -0.9860    1.3740 hn        1 MOL      0.249576
    150 H68        -8.0870    1.6470    1.6590 h1        1 MOL      0.103013
    151 H69        -6.2990    1.9790    3.2590 hc        1 MOL      0.009526
    152 H70        -5.5920    0.4660    2.8100 hc        1 MOL      0.009526
    153 H71        -7.5230   -0.8580    3.4380 hc        1 MOL      0.008480
    154 H72        -8.4310    0.5770    3.8400 hc        1 MOL      0.008480
    155 H73        -5.7290    0.0040    5.1610 hc        1 MOL      0.027862
    156 H74        -7.3620   -0.5320    5.8250 hc        1 MOL      0.027862
    157 H75        -8.1300    1.7650    5.9270 hx        1 MOL      0.078129
    158 H76        -6.7980    2.3960    5.1500 hx        1 MOL      0.078129
    159 H77        -6.3410    2.5530    7.4990 hn        1 MOL      0.332523
    160 H78        -6.6280    0.9320    7.7680 hn        1 MOL      0.332523
    161 H79        -5.3720    1.4450    6.9360 hn        1 MOL      0.332523
    162 N14        -5.1600    1.4750    0.0760 n         1 MOL      0.018830
    163 C49        -4.2110    2.1880   -0.8150 c3        1 MOL     -0.093074
    164 C50        -4.7800    2.4790   -2.1740 c         1 MOL      0.409154
    165 O22        -4.5800    3.6550   -2.6300 o         1 MOL     -0.595020
    166 C51        -3.0330    1.2550   -0.8510 c3        1 MOL      0.068736
    167 C52        -2.1790    1.3770    0.4720 c3        1 MOL     -0.465819
    168 C53        -1.1930    0.2420    0.7130 c         1 MOL      0.912442
    169 O23        -1.5930   -0.8720    1.0460 o         1 MOL     -0.745419
    170 O24         0.0260    0.5070    0.7410 o         1 MOL     -0.745419
    171 H80        -4.9050    0.5360    0.3300 hn        1 MOL      0.060545
    172 H81        -3.8620    3.0840   -0.3130 h1        1 MOL      0.088266
    173 H82        -2.4290    1.5950   -1.6980 hc        1 MOL      0.050650
    174 H83        -3.2960    0.2020   -0.9100 hc        1 MOL      0.050650
    175 H84        -2.9130    1.3000    1.2770 hc        1 MOL      0.098165
    176 H85        -1.5940    2.2980    0.4700 hc        1 MOL      0.098165
    177 N15        -5.6070    1.6590   -2.7390 n         1 MOL      0.013621
    178 C54        -6.4120    1.9970   -3.9290 c3        1 MOL     -0.486357
    179 H86        -6.7270    3.0380   -3.8700 h1        1 MOL      0.168290
    180 H87        -5.8140    1.8490   -4.8270 h1        1 MOL      0.168290
    181 H88        -7.2910    1.3530   -3.9680 h1        1 MOL      0.168290
    182 H89        -5.7580    0.7800   -2.2780 hn        1 MOL      0.103909
    183 Ca1         2.0260   -0.8450    1.4560 Ca        1 MOL      1.648870
    184 O25         0.2520   -2.9150    1.5640 oh        1 MOL     -0.795037
    185 H90        -0.1410   -3.7350    1.8670 ho        1 MOL      0.390964
    186 H91        -0.4860   -2.3190    1.4530 ho        1 MOL      0.390964
    187 O26         0.6660   -0.6920    3.8180 oh        1 MOL     -0.795037
    188 H92         1.3030   -0.3830    4.4660 ho        1 MOL      0.390964
    189 H93         0.1190   -1.3110    4.2960 ho        1 MOL      0.390964
@<TRIPOS>BOND
     1    1    2 1   
     2    1    4 1   
     3    1    5 1   
     4    1    6 1   
     5    2    3 2   
     6    2    7 1   
     7    7    8 1   
     8    7   15 1   
     9    8    9 1   
    10    8   11 1   
    11    8   16 1   
    12    9   10 2   
    13    9   19 1   
    14   11   12 1   
    15   11   17 1   
    16   11   18 1   
    17   12   13 1   
    18   12   14 1   
    19   19   20 1   
    20   19   28 1   
    21   20   21 1   
    22   20   23 1   
    23   20   29 1   
    24   21   22 2   
    25   21   41 1   
    26   23   24 1   
    27   23   30 1   
    28   23   31 1   
    29   24   25 1   
    30   24   32 1   
    31   24   33 1   
    32   25   26 1   
    33   25   34 1   
    34   25   35 1   
    35   26   27 1   
    36   26   36 1   
    37   26   37 1   
    38   27   38 1   
    39   27   39 1   
    40   27   40 1   
    41   41   42 1   
    42   41   49 1   
    43   42   43 1   
    44   42   45 1   
    45   42   50 1   
    46   43   44 2   
    47   43   53 1   
    48   45   46 1   
    49   45   51 1   
    50   45   52 1   
    51   46   47 1   
    52   46   48 1   
    53   53   54 1   
    54   53   57 1   
    55   54   55 1   
    56   54   58 1   
    57   54   59 1   
    58   55   56 2   
    59   55   60 1   
    60   60   61 1   
    61   60   68 1   
    62   61   62 1   
    63   61   64 1   
    64   61   69 1   
    65   62   63 2   
    66   62   72 1   
    67   64   65 1   
    68   64   70 1   
    69   64   71 1   
    70   65   66 1   
    71   65   67 1   
    72   72   73 1   
    73   72   76 1   
    74   73   74 1   
    75   73   77 1   
    76   73   78 1   
    77   74   75 2   
    78   74   79 1   
    79   79   80 1   
    80   79   86 1   
    81   80   81 1   
    82   80   83 1   
    83   80   87 1   
    84   81   82 2   
    85   81   93 1   
    86   83   84 1   
    87   83   85 1   
    88   83   88 1   
    89   84   90 1   
    90   84   91 1   
    91   84   92 1   
    92   85   89 1   
    93   93   94 1   
    94   93  101 1   
    95   94   95 1   
    96   94   97 1   
    97   94  102 1   
    98   95   96 2   
    99   95  112 1   
   100   97   98 1   
   101   97   99 1   
   102   97  103 1   
   103   98  100 1   
   104   98  104 1   
   105   98  105 1   
   106   99  106 1   
   107   99  107 1   
   108   99  108 1   
   109  100  109 1   
   110  100  110 1   
   111  100  111 1   
   112  112  113 1   
   113  112  119 1   
   114  113  114 1   
   115  113  116 1   
   116  113  120 1   
   117  114  115 2   
   118  114  126 1   
   119  116  117 1   
   120  116  118 1   
   121  116  121 1   
   122  117  123 1   
   123  117  124 1   
   124  117  125 1   
   125  118  122 1   
   126  126  127 1   
   127  126  133 1   
   128  127  128 1   
   129  127  130 1   
   130  127  134 1   
   131  128  129 2   
   132  128  140 1   
   133  130  131 1   
   134  130  132 1   
   135  130  135 1   
   136  131  137 1   
   137  131  138 1   
   138  131  139 1   
   139  132  136 1   
   140  140  141 1   
   141  140  149 1   
   142  141  142 1   
   143  141  144 1   
   144  141  150 1   
   145  142  143 2   
   146  142  162 1   
   147  144  145 1   
   148  144  151 1   
   149  144  152 1   
   150  145  146 1   
   151  145  153 1   
   152  145  154 1   
   153  146  147 1   
   154  146  155 1   
   155  146  156 1   
   156  147  148 1   
   157  147  157 1   
   158  147  158 1   
   159  148  159 1   
   160  148  160 1   
   161  148  161 1   
   162  162  163 1   
   163  162  171 1   
   164  163  164 1   
   165  163  166 1   
   166  163  172 1   
   167  164  165 2   
   168  164  177 1   
   169  166  167 1   
   170  166  173 1   
   171  166  174 1   
   172  167  168 1   
   173  167  175 1   
   174  167  176 1   
   175  168  169 1   
   176  168  170 1   
   177  177  178 1   
   178  177  182 1   
   179  178  179 1   
   180  178  180 1   
   181  178  181 1   
   182  184  185 1   
   183  184  186 1   
   184  187  188 1   
   185  187  189 1   
@<TRIPOS>SUBSTRUCTURE
     1 MOL         1 TEMP              0 ****  ****    0 ROOT
