@<TRIPOS>MOLECULE
MOL
  189   185     1     0     0
SMALL
resp


@<TRIPOS>ATOM
      1 C1         -0.2200    2.9600    5.6350 c3        1 MOL     -0.379845
      2 C2         -0.5580    2.4500    4.2160 c         1 MOL      0.810826
      3 O1          0.3560    2.2650    3.4370 o         1 MOL     -0.667591
      4 H1         -0.0050    4.0280    5.5940 hc        1 MOL      0.092651
      5 H2         -1.0690    2.7860    6.2970 hc        1 MOL      0.092651
      6 H3          0.6530    2.4290    6.0150 hc        1 MOL      0.092651
      7 N1         -1.8110    2.1750    3.8740 n         1 MOL     -0.722415
      8 C3         -2.1790    1.9570    2.4780 c3        1 MOL      0.425797
      9 C4         -2.4450    3.3650    1.8510 c         1 MOL      0.346731
     10 O2         -3.0590    4.2440    2.5120 o         1 MOL     -0.579345
     11 C5         -3.4010    1.0420    2.3520 c3        1 MOL     -0.314100
     12 C6         -3.9490    0.7420    0.9640 c         1 MOL      0.784208
     13 O3         -3.2490    1.1000   -0.0610 o         1 MOL     -0.652206
     14 O4         -5.0970    0.3270    0.9960 o         1 MOL     -0.652206
     15 H4         -2.5220    2.2770    4.5820 hn        1 MOL      0.341812
     16 H5         -1.4260    1.4700    1.8610 h1        1 MOL     -0.106131
     17 H6         -4.1770    1.5240    2.9600 hc        1 MOL      0.063293
     18 H7         -3.0720    0.1030    2.8050 hc        1 MOL      0.063293
     19 N2         -2.1400    3.4840    0.5730 n         1 MOL     -0.027683
     20 C7         -2.2790    4.7800   -0.1770 c3        1 MOL     -0.053683
     21 C8         -3.3090    4.7130   -1.3140 c         1 MOL      0.473251
     22 O5         -3.6800    5.7630   -1.7640 o         1 MOL     -0.548652
     23 C9         -0.9440    5.2460   -0.6350 c3        1 MOL     -0.071980
     24 C10         0.1930    5.4840    0.4720 c3        1 MOL      0.042963
     25 C11        -0.1590    6.6140    1.4740 c3        1 MOL     -0.005808
     26 C12         0.8540    7.2090    2.3950 c3        1 MOL     -0.148818
     27 N3          1.1280    6.2960    3.5080 n4        1 MOL     -0.178241
     28 H8         -1.6550    2.7120    0.1300 hn        1 MOL      0.162596
     29 H9         -2.7270    5.5500    0.4430 h1        1 MOL      0.056578
     30 H10        -1.0240    6.1680   -1.2160 hc        1 MOL      0.055987
     31 H11        -0.5920    4.4180   -1.2610 hc        1 MOL      0.055987
     32 H12         1.0400    5.7550   -0.1560 hc        1 MOL     -0.008384
     33 H13         0.3520    4.5410    0.9920 hc        1 MOL     -0.008384
     34 H14        -0.9550    6.2230    2.1050 hc        1 MOL      0.047089
     35 H15        -0.5060    7.4590    0.8830 hc        1 MOL      0.047089
     36 H16         0.5490    8.1620    2.8230 hx        1 MOL      0.121755
     37 H17         1.7820    7.3840    1.8500 hx        1 MOL      0.121755
     38 H18         1.6170    6.7940    4.2360 hn        1 MOL      0.279321
     39 H19         0.3650    5.7350    3.8600 hn        1 MOL      0.279321
     40 H20         1.8240    5.6290    3.2000 hn        1 MOL      0.279321
     41 N4         -3.7810    3.5180   -1.6920 n         1 MOL     -0.082580
     42 C13        -4.8060    3.2870   -2.7500 c3        1 MOL     -0.192896
     43 C14        -6.1870    3.0740   -2.1410 c         1 MOL      0.452650
     44 O6         -7.2270    3.2860   -2.7590 o         1 MOL     -0.502299
     45 C15        -4.4620    1.9960   -3.6150 c3        1 MOL      0.032968
     46 C16        -3.0150    2.0170   -4.0240 c         1 MOL      0.685381
     47 O7         -2.7840    2.4080   -5.1830 o         1 MOL     -0.638310
     48 O8         -2.1730    1.6280   -3.1930 o         1 MOL     -0.638310
     49 H21        -3.4390    2.7100   -1.1840 hn        1 MOL     -0.061014
     50 H22        -4.8100    4.1070   -3.4640 h1        1 MOL      0.125761
     51 H23        -5.1530    1.9000   -4.4480 hc        1 MOL      0.009775
     52 H24        -4.5490    1.1900   -2.8820 hc        1 MOL      0.009775
     53 N5         -6.2430    2.6300   -0.8650 n         1 MOL     -0.184625
     54 C17        -7.4660    2.2030   -0.2380 c3        1 MOL     -0.388116
     55 C18        -7.9270    0.7750   -0.6370 c         1 MOL      0.610656
     56 O9         -9.1060    0.5340   -0.8180 o         1 MOL     -0.582022
     57 H25        -5.3720    2.4550   -0.3800 hn        1 MOL      0.157035
     58 H26        -8.2280    2.8840   -0.6220 h1        1 MOL      0.147606
     59 H27        -7.2500    2.1310    0.8300 h1        1 MOL      0.147606
     60 N6         -6.9290   -0.0670   -0.8370 n         1 MOL     -0.389715
     61 C19        -7.1860   -1.4550   -1.3590 c3        1 MOL     -0.031455
     62 C20        -7.0950   -2.5300   -0.2450 c         1 MOL      0.381064
     63 O10        -7.2730   -3.7150   -0.4910 o         1 MOL     -0.512876
     64 C21        -6.3310   -1.7630   -2.6130 c3        1 MOL     -0.323806
     65 C22        -4.8520   -1.6450   -2.3700 c         1 MOL      0.841453
     66 O11        -4.3870   -2.0290   -1.3000 o         1 MOL     -0.829931
     67 O12        -4.0590   -1.0720   -3.1720 o         1 MOL     -0.829931
     68 H28        -6.0000    0.3260   -0.6940 hn        1 MOL      0.480837
     69 H29        -8.2280   -1.4830   -1.7090 h1        1 MOL      0.125787
     70 H30        -6.5820   -1.0910   -3.4300 hc        1 MOL      0.110099
     71 H31        -6.4430   -2.8100   -2.8850 hc        1 MOL      0.110099
     72 N7         -6.6730   -2.1200    0.9330 n         1 MOL     -0.151992
     73 C23        -6.5530   -2.9660    2.1030 c3        1 MOL     -0.148431
     74 C24        -5.3630   -3.8820    2.0300 c         1 MOL      0.523947
     75 O13        -5.5030   -4.9270    2.6750 o         1 MOL     -0.529509
     76 H32        -6.4800   -1.1400    1.0820 hn        1 MOL      0.145820
     77 H33        -7.4910   -3.5080    2.1010 h1        1 MOL      0.092784
     78 H34        -6.4560   -2.3670    3.0100 h1        1 MOL      0.092784
     79 N8         -4.2100   -3.3930    1.4990 n         1 MOL     -0.266452
     80 C25        -2.9590   -4.1170    1.4430 c3        1 MOL     -0.149285
     81 C26        -1.8200   -3.1570    1.1470 c         1 MOL      0.516517
     82 O14        -1.9960   -2.0320    0.6420 o         1 MOL     -0.622624
     83 C27        -3.0090   -5.1600    0.3490 c3        1 MOL      0.536776
     84 C28        -3.6590   -6.5250    0.5800 c3        1 MOL     -0.472420
     85 O15        -3.6630   -4.6440   -0.8070 oh        1 MOL     -0.713484
     86 H35        -4.2110   -2.4320    1.1670 hn        1 MOL      0.230509
     87 H36        -2.7740   -4.6380    2.3770 h1        1 MOL      0.076090
     88 H37        -1.9690   -5.3590    0.1150 h1        1 MOL     -0.049374
     89 H38        -4.0570   -3.8050   -0.5670 ho        1 MOL      0.527433
     90 H39        -2.9700   -7.1120    1.1800 hc        1 MOL      0.121731
     91 H40        -4.6210   -6.4740    1.0820 hc        1 MOL      0.121731
     92 H41        -3.6260   -6.9790   -0.4130 hc        1 MOL      0.121731
     93 N9         -0.5880   -3.5580    1.3800 n         1 MOL     -0.451512
     94 C29         0.6550   -2.8080    1.5290 c3        1 MOL      0.043279
     95 C30         1.7930   -3.3830    0.6960 c         1 MOL      0.499242
     96 O16         2.2650   -4.4360    1.0330 o         1 MOL     -0.531785
     97 C31         0.9730   -2.7310    3.0860 c3        1 MOL     -0.054522
     98 C32        -0.0530   -1.8410    3.7790 c3        1 MOL     -0.069279
     99 C33         2.3860   -2.1490    3.3750 c3        1 MOL     -0.530566
    100 C34         0.1750   -1.8020    5.3350 c3        1 MOL     -0.127974
    101 H42        -0.4690   -4.4490    1.8380 hn        1 MOL      0.283160
    102 H43         0.5990   -1.7930    1.1280 h1        1 MOL      0.081530
    103 H44         0.8920   -3.7510    3.4730 hc        1 MOL      0.062819
    104 H45        -1.0700   -2.1420    3.5430 hc        1 MOL      0.074364
    105 H46        -0.0050   -0.7930    3.4810 hc        1 MOL      0.074364
    106 H47         2.5910   -2.4820    4.3950 hc        1 MOL      0.144204
    107 H48         3.0940   -2.5080    2.6290 hc        1 MOL      0.144204
    108 H49         2.4550   -1.0630    3.3240 hc        1 MOL      0.144204
    109 H50         0.1660   -2.8370    5.6640 hc        1 MOL      0.043133
    110 H51         1.1090   -1.3200    5.6270 hc        1 MOL      0.043133
    111 H52        -0.6410   -1.3050    5.8570 hc        1 MOL      0.043133
    112 N10         2.1790   -2.7700   -0.4280 n         1 MOL     -0.177048
    113 C35         3.3200   -3.1410   -1.3070 c3        1 MOL     -0.241449
    114 C36         4.6580   -3.0880   -0.5740 c         1 MOL      0.434798
    115 O17         4.6950   -2.7370    0.5860 o         1 MOL     -0.320389
    116 C37         3.4350   -2.1950   -2.5510 c3        1 MOL      0.408525
    117 C38         2.2230   -2.6090   -3.4860 c3        1 MOL     -0.580275
    118 O18         3.3150   -0.8060   -2.2420 oh        1 MOL     -0.678634
    119 H53         1.5690   -2.0460   -0.7770 hn        1 MOL      0.163858
    120 H54         3.0950   -4.1430   -1.6640 h1        1 MOL      0.136036
    121 H55         4.3520   -2.3450   -3.1150 h1        1 MOL      0.008960
    122 H56         2.4750   -0.6340   -1.7990 ho        1 MOL      0.490476
    123 H57         2.1260   -1.9010   -4.3120 hc        1 MOL      0.143605
    124 H58         2.3410   -3.6110   -3.8930 hc        1 MOL      0.143605
    125 H59         1.2660   -2.4950   -2.9720 hc        1 MOL      0.143605
    126 N11         5.8460   -3.2740   -1.2110 n         1 MOL     -0.396194
    127 C39         7.1720   -3.0410   -0.5410 c3        1 MOL     -0.027882
    128 C40         7.4090   -1.6040   -0.1590 c         1 MOL      0.320498
    129 O19         7.6700   -1.2760    1.0130 o         1 MOL     -0.475370
    130 C41         8.3200   -3.5660   -1.3890 c3        1 MOL      0.356976
    131 C42         8.5330   -5.0790   -1.3500 c3        1 MOL     -0.370512
    132 O20         8.0780   -3.3360   -2.7510 oh        1 MOL     -0.592297
    133 H60         5.7430   -3.7440   -2.1030 hn        1 MOL      0.270929
    134 H61         7.1730   -3.6330    0.3740 h1        1 MOL      0.118036
    135 H62         9.2360   -3.0850   -1.0740 h1        1 MOL      0.016688
    136 H63         8.3790   -2.4770   -3.0570 ho        1 MOL      0.355642
    137 H64         9.2220   -5.4790   -2.0870 hc        1 MOL      0.107027
    138 H65         8.8660   -5.2970   -0.3300 hc        1 MOL      0.107027
    139 H66         7.5510   -5.5220   -1.5460 hc        1 MOL      0.107027
    140 N12         7.1040   -0.6270   -1.0300 n         1 MOL     -0.355668
    141 C43         7.2500    0.8430   -0.7840 c3        1 MOL      0.035645
    142 C44         6.2180    1.4830    0.1850 c         1 MOL      0.422583
    143 O21         6.4920    2.4400    0.8620 o         1 MOL     -0.503475
    144 C45         7.2390    1.6380   -2.1390 c3        1 MOL     -0.209739
    145 C46         8.1340    2.8810   -2.1270 c3        1 MOL     -0.014536
    146 C47         9.6430    2.6450   -1.9400 c3        1 MOL     -0.236185
    147 C48        10.2670    4.0220   -2.3120 c3        1 MOL      0.133942
    148 N13        11.6840    3.8030   -2.5130 n4        1 MOL     -0.218836
    149 H67         6.7560   -0.9590   -1.9230 hn        1 MOL      0.265852
    150 H68         8.2030    0.9940   -0.2810 h1        1 MOL      0.099784
    151 H69         6.2520    1.9200   -2.4720 hc        1 MOL      0.080355
    152 H70         7.6910    0.9930   -2.8960 hc        1 MOL      0.080355
    153 H71         7.8090    3.4960   -1.2810 hc        1 MOL      0.065984
    154 H72         7.8400    3.5280   -2.9570 hc        1 MOL      0.065984
    155 H73         9.9270    1.8530   -2.6290 hc        1 MOL      0.094918
    156 H74         9.9480    2.4380   -0.9120 hc        1 MOL      0.094918
    157 H75        10.0460    4.8000   -1.5840 hx        1 MOL      0.056000
    158 H76         9.7240    4.2930   -3.2180 hx        1 MOL      0.056000
    159 H77        11.8390    3.0630   -3.1850 hn        1 MOL      0.242732
    160 H78        12.1510    4.6420   -2.8180 hn        1 MOL      0.242732
    161 H79        12.1910    3.4860   -1.6920 hn        1 MOL      0.242732
    162 N14         5.0780    0.7610    0.3630 n         1 MOL     -0.103825
    163 C49         4.0510    1.1240    1.3510 c3        1 MOL     -0.227632
    164 C50         4.4830    0.6430    2.6910 c         1 MOL      0.504158
    165 O22         4.4130    1.3450    3.6810 o         1 MOL     -0.548912
    166 C51         2.6470    0.5910    0.9920 c3        1 MOL      0.091047
    167 C52         1.9640    1.3960   -0.1320 c3        1 MOL     -0.301039
    168 C53         0.7590    0.6350   -0.6660 c         1 MOL      0.553921
    169 O23         0.8890   -0.4510   -1.2550 o         1 MOL     -0.584099
    170 O24        -0.3830    1.0670   -0.3970 o         1 MOL     -0.584099
    171 H80         4.8980   -0.0030   -0.2580 hn        1 MOL      0.153653
    172 H81         3.8210    2.1920    1.3590 h1        1 MOL      0.102142
    173 H82         2.0120    0.8120    1.8500 hc        1 MOL      0.110473
    174 H83         2.6670   -0.4850    0.7870 hc        1 MOL      0.110473
    175 H84         2.7060    1.5480   -0.9160 hc        1 MOL      0.064825
    176 H85         1.6580    2.3250    0.3410 hc        1 MOL      0.064825
    177 N15         5.0280   -0.6570    2.8010 n         1 MOL     -0.072799
    178 C54         5.6980   -1.3170    3.9570 c3        1 MOL     -0.331964
    179 H86         5.7630   -0.6150    4.7880 h1        1 MOL      0.114610
    180 H87         5.1220   -2.1890    4.2630 h1        1 MOL      0.114610
    181 H88         6.7020   -1.6280    3.6660 h1        1 MOL      0.114610
    182 H89         5.1950   -1.1580    1.9440 hn        1 MOL      0.112849
    183 Ca1        -2.0690   -0.5850   -1.5670 Ca        1 MOL      1.721285
    184 O25        -1.7630   -3.1870   -2.1330 oh        1 MOL     -0.845288
    185 H90        -1.7450   -3.5360   -3.0210 ho        1 MOL      0.406148
    186 H91        -2.4400   -3.6960   -1.6900 ho        1 MOL      0.406148
    187 O26        -0.6480   -0.7880   -3.8420 oh        1 MOL     -0.845288
    188 H92        -0.6870   -0.2430   -4.6280 ho        1 MOL      0.406148
    189 H93        -0.8100   -1.6770   -4.1570 ho        1 MOL      0.406148
@<TRIPOS>BOND
     1    1    2 1   
     2    1    4 1   
     3    1    5 1   
     4    1    6 1   
     5    2    3 2   
     6    2    7 1   
     7    7    8 1   
     8    7   15 1   
     9    8    9 1   
    10    8   11 1   
    11    8   16 1   
    12    9   10 2   
    13    9   19 1   
    14   11   12 1   
    15   11   17 1   
    16   11   18 1   
    17   12   13 1   
    18   12   14 1   
    19   19   20 1   
    20   19   28 1   
    21   20   21 1   
    22   20   23 1   
    23   20   29 1   
    24   21   22 2   
    25   21   41 1   
    26   23   24 1   
    27   23   30 1   
    28   23   31 1   
    29   24   25 1   
    30   24   32 1   
    31   24   33 1   
    32   25   26 1   
    33   25   34 1   
    34   25   35 1   
    35   26   27 1   
    36   26   36 1   
    37   26   37 1   
    38   27   38 1   
    39   27   39 1   
    40   27   40 1   
    41   41   42 1   
    42   41   49 1   
    43   42   43 1   
    44   42   45 1   
    45   42   50 1   
    46   43   44 2   
    47   43   53 1   
    48   45   46 1   
    49   45   51 1   
    50   45   52 1   
    51   46   47 1   
    52   46   48 1   
    53   53   54 1   
    54   53   57 1   
    55   54   55 1   
    56   54   58 1   
    57   54   59 1   
    58   55   56 2   
    59   55   60 1   
    60   60   61 1   
    61   60   68 1   
    62   61   62 1   
    63   61   64 1   
    64   61   69 1   
    65   62   63 2   
    66   62   72 1   
    67   64   65 1   
    68   64   70 1   
    69   64   71 1   
    70   65   66 1   
    71   65   67 1   
    72   72   73 1   
    73   72   76 1   
    74   73   74 1   
    75   73   77 1   
    76   73   78 1   
    77   74   75 2   
    78   74   79 1   
    79   79   80 1   
    80   79   86 1   
    81   80   81 1   
    82   80   83 1   
    83   80   87 1   
    84   81   82 2   
    85   81   93 1   
    86   83   84 1   
    87   83   85 1   
    88   83   88 1   
    89   84   90 1   
    90   84   91 1   
    91   84   92 1   
    92   85   89 1   
    93   93   94 1   
    94   93  101 1   
    95   94   95 1   
    96   94   97 1   
    97   94  102 1   
    98   95   96 2   
    99   95  112 1   
   100   97   98 1   
   101   97   99 1   
   102   97  103 1   
   103   98  100 1   
   104   98  104 1   
   105   98  105 1   
   106   99  106 1   
   107   99  107 1   
   108   99  108 1   
   109  100  109 1   
   110  100  110 1   
   111  100  111 1   
   112  112  113 1   
   113  112  119 1   
   114  113  114 1   
   115  113  116 1   
   116  113  120 1   
   117  114  115 2   
   118  114  126 1   
   119  116  117 1   
   120  116  118 1   
   121  116  121 1   
   122  117  123 1   
   123  117  124 1   
   124  117  125 1   
   125  118  122 1   
   126  126  127 1   
   127  126  133 1   
   128  127  128 1   
   129  127  130 1   
   130  127  134 1   
   131  128  129 2   
   132  128  140 1   
   133  130  131 1   
   134  130  132 1   
   135  130  135 1   
   136  131  137 1   
   137  131  138 1   
   138  131  139 1   
   139  132  136 1   
   140  140  141 1   
   141  140  149 1   
   142  141  142 1   
   143  141  144 1   
   144  141  150 1   
   145  142  143 2   
   146  142  162 1   
   147  144  145 1   
   148  144  151 1   
   149  144  152 1   
   150  145  146 1   
   151  145  153 1   
   152  145  154 1   
   153  146  147 1   
   154  146  155 1   
   155  146  156 1   
   156  147  148 1   
   157  147  157 1   
   158  147  158 1   
   159  148  159 1   
   160  148  160 1   
   161  148  161 1   
   162  162  163 1   
   163  162  171 1   
   164  163  164 1   
   165  163  166 1   
   166  163  172 1   
   167  164  165 2   
   168  164  177 1   
   169  166  167 1   
   170  166  173 1   
   171  166  174 1   
   172  167  168 1   
   173  167  175 1   
   174  167  176 1   
   175  168  169 1   
   176  168  170 1   
   177  177  178 1   
   178  177  182 1   
   179  178  179 1   
   180  178  180 1   
   181  178  181 1   
   182  184  185 1   
   183  184  186 1   
   184  187  188 1   
   185  187  189 1   
@<TRIPOS>SUBSTRUCTURE
     1 MOL         1 TEMP              0 ****  ****    0 ROOT
