@<TRIPOS>MOLECULE
MOL
  179   176     1     0     0
SMALL
resp


@<TRIPOS>ATOM
      1 C1          0.7520    4.2490    4.8480 c3        1 MOL     -0.395514
      2 C2          0.3520    3.4920    3.5970 c         1 MOL      0.708036
      3 O1          1.1480    3.2280    2.7110 o         1 MOL     -0.537597
      4 H1          1.3290    3.5930    5.5000 hc        1 MOL      0.097202
      5 H2          1.3600    5.1120    4.5730 hc        1 MOL      0.097202
      6 H3         -0.1420    4.5860    5.3710 hc        1 MOL      0.097202
      7 N1         -0.9890    3.3140    3.4330 n         1 MOL     -0.686611
      8 C3         -1.6480    2.7940    2.2300 c3        1 MOL      0.154820
      9 C4         -2.5110    3.8180    1.6040 c         1 MOL      0.604446
     10 O2         -3.7190    3.8450    1.7270 o         1 MOL     -0.495403
     11 C5         -2.3600    1.4560    2.6060 c3        1 MOL     -0.256149
     12 C6         -2.9700    0.7060    1.4530 c         1 MOL      0.822931
     13 O3         -2.6500    0.9670    0.3120 o         1 MOL     -0.765462
     14 O4         -3.8830   -0.1230    1.7610 o         1 MOL     -0.765462
     15 H4         -1.5870    3.5680    4.2010 hn        1 MOL      0.354766
     16 H5         -0.8850    2.5910    1.4710 h1        1 MOL      0.032550
     17 H6         -3.1560    1.7640    3.2790 hc        1 MOL      0.069716
     18 H7         -1.7080    0.7550    3.1250 hc        1 MOL      0.069716
     19 N2         -1.8710    4.7970    0.8930 n         1 MOL     -0.504330
     20 C7         -2.5300    6.0000    0.3110 c3        1 MOL     -0.105391
     21 C8         -3.5690    5.8040   -0.8370 c         1 MOL      0.484587
     22 O5         -4.4090    6.6880   -1.0830 o         1 MOL     -0.543873
     23 C9         -1.2840    6.7890   -0.1260 c3        1 MOL     -0.016260
     24 C10        -0.4300    7.0970    1.0950 c3        1 MOL      0.031506
     25 C11         0.5630    8.1350    0.6230 c3        1 MOL      0.020271
     26 C12         1.4890    8.4190    1.8400 c3        1 MOL      0.083634
     27 N3          2.6580    9.2090    1.5420 n4        1 MOL     -0.351444
     28 H8         -0.8900    4.9750    1.0490 hn        1 MOL      0.317183
     29 H9         -3.0610    6.5750    1.0660 h1        1 MOL      0.113571
     30 H10        -1.6810    7.6480   -0.6540 hc        1 MOL      0.047493
     31 H11        -0.6780    6.2760   -0.8780 hc        1 MOL      0.047493
     32 H12         0.0800    6.1920    1.4270 hc        1 MOL      0.003365
     33 H13        -1.0120    7.4960    1.9210 hc        1 MOL      0.003365
     34 H14         0.0290    9.0250    0.3130 hc        1 MOL      0.014481
     35 H15         1.1420    7.8030   -0.2340 hc        1 MOL      0.014481
     36 H16         1.8140    7.5170    2.3710 hx        1 MOL      0.062932
     37 H17         0.8190    8.9820    2.4840 hx        1 MOL      0.062932
     38 H18         2.4170   10.0660    1.0620 hn        1 MOL      0.327220
     39 H19         3.2200    9.4230    2.3470 hn        1 MOL      0.327220
     40 H20         3.2310    8.6580    0.9160 hn        1 MOL      0.327220
     41 N4         -3.5270    4.6850   -1.5510 n         1 MOL     -0.273587
     42 C13        -4.4600    4.1930   -2.5340 c3        1 MOL     -0.002887
     43 C14        -5.6110    3.3960   -1.8850 c         1 MOL      0.499247
     44 O6         -6.6870    3.2920   -2.4150 o         1 MOL     -0.538633
     45 C15        -3.7500    3.3250   -3.5760 c3        1 MOL     -0.193763
     46 C16        -3.0620    2.1700   -2.9840 c         1 MOL      0.726678
     47 O7         -1.9480    2.3990   -2.5170 o         1 MOL     -0.714390
     48 O8         -3.4760    0.9870   -2.9330 o         1 MOL     -0.714390
     49 H21        -2.7930    4.0220   -1.3430 hn        1 MOL      0.198730
     50 H22        -4.9030    5.0430   -3.0430 h1        1 MOL      0.094199
     51 H23        -3.0720    3.9340   -4.1740 hc        1 MOL      0.058267
     52 H24        -4.5210    3.0140   -4.2760 hc        1 MOL      0.058267
     53 N5         -5.3220    2.8700   -0.6930 n         1 MOL     -0.096204
     54 C17        -6.4330    2.2450    0.1050 c3        1 MOL     -0.318522
     55 C18        -6.8760    0.8470   -0.3140 c         1 MOL      0.512114
     56 O9         -7.9220    0.3990    0.2020 o         1 MOL     -0.589748
     57 H25        -4.4270    2.8530   -0.2240 hn        1 MOL      0.104938
     58 H26        -7.2470    2.9510    0.2570 h1        1 MOL      0.152234
     59 H27        -5.9830    2.0170    1.0770 h1        1 MOL      0.152234
     60 N6         -6.0880    0.1620   -1.0730 n         1 MOL     -0.129211
     61 C19        -6.4210   -1.2620   -1.4410 c3        1 MOL     -0.149957
     62 C20        -6.3490   -2.3850   -0.3380 c         1 MOL      0.339670
     63 O10        -6.7900   -3.5380   -0.4870 o         1 MOL     -0.480313
     64 C21        -5.5890   -1.6450   -2.6380 c3        1 MOL     -0.042551
     65 C22        -4.2120   -2.2370   -2.2820 c         1 MOL      0.582520
     66 N7         -3.8890   -3.4000   -2.8200 n         1 MOL     -0.732248
     67 O11        -3.3400   -1.6150   -1.5980 o         1 MOL     -0.590664
     68 H28        -5.2930    0.6810   -1.4050 hn        1 MOL      0.148918
     69 H29        -7.4820   -1.1840   -1.6730 h1        1 MOL      0.135451
     70 H30        -5.4440   -0.7750   -3.2860 hc        1 MOL      0.041768
     71 H31        -6.0670   -2.4310   -3.2170 hc        1 MOL      0.041768
     72 H32        -4.5870   -3.9260   -3.3300 hn        1 MOL      0.355599
     73 H33        -2.9490   -3.7370   -2.6800 hn        1 MOL      0.355599
     74 N8         -5.7870   -1.9540    0.8040 n         1 MOL     -0.073429
     75 C23        -5.6240   -2.8230    1.9950 c3        1 MOL     -0.319029
     76 C24        -4.2930   -3.4780    2.1770 c         1 MOL      0.745059
     77 O12        -4.1780   -4.2700    3.1240 o         1 MOL     -0.604462
     78 H34        -5.4750   -1.0010    0.8720 hn        1 MOL      0.268926
     79 H35        -6.4380   -3.5540    2.0190 h1        1 MOL      0.132353
     80 H36        -5.7830   -2.1730    2.8570 h1        1 MOL      0.132353
     81 N9         -3.2180   -3.1250    1.4250 n         1 MOL     -0.380463
     82 C25        -1.8850   -3.7650    1.2750 c3        1 MOL     -0.009740
     83 C26        -0.7710   -2.7660    0.9760 c         1 MOL      0.748245
     84 O13        -0.8470   -1.7960    0.1900 o         1 MOL     -0.646738
     85 C27        -1.9320   -4.7390    0.1010 c3        1 MOL     -0.204919
     86 C28        -2.8160   -5.9460    0.2930 ca        1 MOL      0.234497
     87 C29        -4.0620   -6.0560   -0.3290 ca        1 MOL     -0.310925
     88 C30        -2.3170   -6.9620    1.1320 ca        1 MOL     -0.310925
     89 C31        -4.8800   -7.1390    0.0090 ca        1 MOL     -0.208249
     90 C32        -3.1920   -8.0280    1.5550 ca        1 MOL     -0.208249
     91 C33        -4.4380   -8.1150    0.9850 ca        1 MOL      0.352700
     92 O14        -5.1530   -9.2040    1.2950 oh        1 MOL     -0.488508
     93 H37        -3.3340   -2.3000    0.8590 hn        1 MOL      0.186286
     94 H38        -1.7670   -4.2080    2.2660 h1        1 MOL      0.073010
     95 H39        -0.9310   -5.1250   -0.1180 hc        1 MOL      0.053567
     96 H40        -2.2620   -4.2150   -0.7880 hc        1 MOL      0.053567
     97 H41        -4.4790   -5.3300   -1.0060 ha        1 MOL      0.174380
     98 H42        -1.4350   -6.7250    1.7020 ha        1 MOL      0.174380
     99 H43        -5.8700   -7.1790   -0.4340 ha        1 MOL      0.145835
    100 H44        -2.9050   -8.6920    2.3510 ha        1 MOL      0.145835
    101 H45        -4.6770   -9.7190    1.9550 ho        1 MOL      0.346993
    102 N10         0.4470   -2.9780    1.5800 n         1 MOL     -0.605360
    103 C34         1.7460   -2.2310    1.2780 c3        1 MOL      0.159671
    104 C35         2.8230   -3.2490    0.9410 c         1 MOL      0.503720
    105 O15         2.8680   -4.3170    1.5160 o         1 MOL     -0.540059
    106 C36         2.1850   -1.3470    2.4870 c3        1 MOL      0.042276
    107 C37         1.0570   -0.4020    3.0510 c3        1 MOL      0.055287
    108 C38         3.4000   -0.3640    2.3430 c3        1 MOL     -0.307058
    109 C39         1.0740   -0.2800    4.5230 c3        1 MOL     -0.375403
    110 H46         0.6140   -3.7210    2.2480 hn        1 MOL      0.295310
    111 H47         1.5320   -1.5900    0.4230 h1        1 MOL      0.040805
    112 H48         2.3570   -2.0880    3.2640 hc        1 MOL      0.032957
    113 H49         0.0740   -0.7240    2.7040 hc        1 MOL      0.043278
    114 H50         1.0270    0.5160    2.4740 hc        1 MOL      0.043278
    115 H51         4.2150   -0.8420    1.8010 hc        1 MOL      0.072756
    116 H52         3.0350    0.4610    1.7300 hc        1 MOL      0.072756
    117 H53         3.8040    0.0090    3.2850 hc        1 MOL      0.072756
    118 H54         1.8310    0.4420    4.8360 hc        1 MOL      0.096555
    119 H55         0.1130    0.0790    4.8860 hc        1 MOL      0.096555
    120 H56         1.2410   -1.2310    5.0220 hc        1 MOL      0.096555
    121 N11         3.7480   -2.8480    0.0580 n         1 MOL     -0.321259
    122 C40         4.9810   -3.5360   -0.3880 c3        1 MOL      0.137278
    123 C41         6.1920   -2.8600    0.1880 c         1 MOL      0.417190
    124 O16         6.1650   -1.7480    0.7650 o         1 MOL     -0.372607
    125 C42         5.0670   -3.4460   -1.9330 c3        1 MOL     -0.231816
    126 O17         5.5870   -2.2720   -2.3820 oh        1 MOL     -0.320681
    127 H57         3.6110   -2.0080   -0.4760 hn        1 MOL      0.186202
    128 H58         4.8970   -4.5750   -0.0750 h1        1 MOL      0.064593
    129 H59         4.0570   -3.6290   -2.3110 h1        1 MOL      0.107761
    130 H60         5.6930   -4.2550   -2.3030 h1        1 MOL      0.107761
    131 H61         5.3840   -2.1730   -3.3190 ho        1 MOL      0.379255
    132 N12         7.3470   -3.5520    0.1620 n         1 MOL     -0.434547
    133 C43         8.5960   -2.9250    0.5270 c3        1 MOL      0.121037
    134 C44         8.8940   -1.6210   -0.1600 c         1 MOL      0.469347
    135 O18         9.3470   -0.6980    0.4730 o         1 MOL     -0.514775
    136 C45         9.7240   -3.9540    0.3040 c3        1 MOL     -0.116000
    137 H62         7.3990   -4.4720   -0.2460 hn        1 MOL      0.289032
    138 H63         8.6050   -2.6570    1.5850 h1        1 MOL      0.065306
    139 H64         9.2750   -4.9290    0.5010 hc        1 MOL      0.041036
    140 H65        10.0690   -3.9630   -0.7300 hc        1 MOL      0.041036
    141 H66        10.6210   -3.8780    0.9240 hc        1 MOL      0.041036
    142 N13         8.6180   -1.4880   -1.4690 n         1 MOL     -0.329219
    143 C46         8.8700   -0.2340   -2.2270 c3        1 MOL      0.050035
    144 C47         7.8560    0.9260   -1.9540 c         1 MOL      0.426018
    145 O19         8.2220    2.0960   -1.9220 o         1 MOL     -0.508448
    146 C48         8.9360   -0.5830   -3.6910 c3        1 MOL     -0.130267
    147 H67         8.1320   -2.2710   -1.8700 hn        1 MOL      0.218087
    148 H68         9.8210    0.1850   -1.8930 h1        1 MOL      0.103134
    149 H69         9.2330    0.2310   -4.3510 hc        1 MOL      0.038892
    150 H70         9.6430   -1.3910   -3.8520 hc        1 MOL      0.038892
    151 H71         7.9510   -0.9860   -3.9230 hc        1 MOL      0.038892
    152 N14         6.6140    0.5590   -1.6760 n         1 MOL     -0.126173
    153 C49         5.6020    1.5340   -1.1960 c3        1 MOL     -0.068153
    154 C50         5.9330    2.0140    0.2250 c         1 MOL      0.410178
    155 O20         6.0080    3.2250    0.4630 o         1 MOL     -0.551895
    156 C51         4.2860    0.8120   -1.2630 c3        1 MOL      0.127647
    157 C52         3.0890    1.7550   -1.2800 c3        1 MOL     -0.293092
    158 C53         1.7500    1.0210   -1.3880 c         1 MOL      0.875325
    159 O21         1.5860   -0.0590   -1.9730 o         1 MOL     -0.807466
    160 O22         0.6780    1.5420   -0.9210 o         1 MOL     -0.807466
    161 H72         6.4510   -0.4310   -1.5880 hn        1 MOL     -0.088651
    162 H73         5.5130    2.4140   -1.8250 h1        1 MOL      0.084556
    163 H74         4.2010    0.1100   -0.4200 hc        1 MOL      0.001510
    164 H75         4.3160    0.2150   -2.1730 hc        1 MOL      0.001510
    165 H76         3.2380    2.4710   -2.0910 hc        1 MOL      0.067542
    166 H77         2.9760    2.2940   -0.3370 hc        1 MOL      0.067542
    167 N15         6.2480    1.0470    1.0730 n         1 MOL      0.019000
    168 C54         6.6940    1.3430    2.4450 c3        1 MOL     -0.266243
    169 H78         7.1460    0.4520    2.8800 h1        1 MOL      0.099313
    170 H79         7.4290    2.1480    2.4240 h1        1 MOL      0.099313
    171 H80         5.8390    1.6470    3.0480 h1        1 MOL      0.099313
    172 H81         6.2410    0.0880    0.7530 hn        1 MOL      0.111071
    173 Ca1        -1.3240    0.0480   -1.5960 Ca        1 MOL      1.772831
    174 O23        -0.6380   -2.2560   -2.7820 oh        1 MOL     -0.771980
    175 H82        -0.5710   -2.3750   -3.7200 ho        1 MOL      0.387521
    176 H83        -0.2800   -3.0610   -2.4100 ho        1 MOL      0.387521
    177 O24        -0.7650    0.2640   -4.3980 oh        1 MOL     -0.771980
    178 H84        -0.4810    1.0220   -4.9010 ho        1 MOL      0.387521
    179 H85        -0.6470   -0.4740   -4.9880 ho        1 MOL      0.387521
@<TRIPOS>BOND
     1    1    2 1   
     2    1    4 1   
     3    1    5 1   
     4    1    6 1   
     5    2    3 2   
     6    2    7 1   
     7    7    8 1   
     8    7   15 1   
     9    8    9 1   
    10    8   11 1   
    11    8   16 1   
    12    9   10 2   
    13    9   19 1   
    14   11   12 1   
    15   11   17 1   
    16   11   18 1   
    17   12   13 1   
    18   12   14 1   
    19   19   20 1   
    20   19   28 1   
    21   20   21 1   
    22   20   23 1   
    23   20   29 1   
    24   21   22 2   
    25   21   41 1   
    26   23   24 1   
    27   23   30 1   
    28   23   31 1   
    29   24   25 1   
    30   24   32 1   
    31   24   33 1   
    32   25   26 1   
    33   25   34 1   
    34   25   35 1   
    35   26   27 1   
    36   26   36 1   
    37   26   37 1   
    38   27   38 1   
    39   27   39 1   
    40   27   40 1   
    41   41   42 1   
    42   41   49 1   
    43   42   43 1   
    44   42   45 1   
    45   42   50 1   
    46   43   44 2   
    47   43   53 1   
    48   45   46 1   
    49   45   51 1   
    50   45   52 1   
    51   46   47 1   
    52   46   48 1   
    53   53   54 1   
    54   53   57 1   
    55   54   55 1   
    56   54   58 1   
    57   54   59 1   
    58   55   56 2   
    59   55   60 1   
    60   60   61 1   
    61   60   68 1   
    62   61   62 1   
    63   61   64 1   
    64   61   69 1   
    65   62   63 2   
    66   62   74 1   
    67   64   65 1   
    68   64   70 1   
    69   64   71 1   
    70   65   66 1   
    71   65   67 2   
    72   66   72 1   
    73   66   73 1   
    74   74   75 1   
    75   74   78 1   
    76   75   76 1   
    77   75   79 1   
    78   75   80 1   
    79   76   77 2   
    80   76   81 1   
    81   81   82 1   
    82   81   93 1   
    83   82   83 1   
    84   82   85 1   
    85   82   94 1   
    86   83   84 2   
    87   83  102 1   
    88   85   86 1   
    89   85   95 1   
    90   85   96 1   
    91   86   87 ar  
    92   86   88 ar  
    93   87   89 ar  
    94   87   97 1   
    95   88   90 ar  
    96   88   98 1   
    97   89   91 ar  
    98   89   99 1   
    99   90   91 ar  
   100   90  100 1   
   101   91   92 1   
   102   92  101 1   
   103  102  103 1   
   104  102  110 1   
   105  103  104 1   
   106  103  106 1   
   107  103  111 1   
   108  104  105 2   
   109  104  121 1   
   110  106  107 1   
   111  106  108 1   
   112  106  112 1   
   113  107  109 1   
   114  107  113 1   
   115  107  114 1   
   116  108  115 1   
   117  108  116 1   
   118  108  117 1   
   119  109  118 1   
   120  109  119 1   
   121  109  120 1   
   122  121  122 1   
   123  121  127 1   
   124  122  123 1   
   125  122  125 1   
   126  122  128 1   
   127  123  124 2   
   128  123  132 1   
   129  125  126 1   
   130  125  129 1   
   131  125  130 1   
   132  126  131 1   
   133  132  133 1   
   134  132  137 1   
   135  133  134 1   
   136  133  136 1   
   137  133  138 1   
   138  134  135 2   
   139  134  142 1   
   140  136  139 1   
   141  136  140 1   
   142  136  141 1   
   143  142  143 1   
   144  142  147 1   
   145  143  144 1   
   146  143  146 1   
   147  143  148 1   
   148  144  145 2   
   149  144  152 1   
   150  146  149 1   
   151  146  150 1   
   152  146  151 1   
   153  152  153 1   
   154  152  161 1   
   155  153  154 1   
   156  153  156 1   
   157  153  162 1   
   158  154  155 2   
   159  154  167 1   
   160  156  157 1   
   161  156  163 1   
   162  156  164 1   
   163  157  158 1   
   164  157  165 1   
   165  157  166 1   
   166  158  159 1   
   167  158  160 1   
   168  167  168 1   
   169  167  172 1   
   170  168  169 1   
   171  168  170 1   
   172  168  171 1   
   173  174  175 1   
   174  174  176 1   
   175  177  178 1   
   176  177  179 1   
@<TRIPOS>SUBSTRUCTURE
     1 MOL         1 TEMP              0 ****  ****    0 ROOT
