@<TRIPOS>MOLECULE
MOL
  189   185     1     0     0
SMALL
resp


@<TRIPOS>ATOM
      1 C1          0.3410    2.5750    5.8090 c3        1 MOL     -0.306192
      2 C2         -0.1670    2.4190    4.3270 c         1 MOL      0.665970
      3 O1          0.5560    2.9040    3.4120 o         1 MOL     -0.616700
      4 H1         -0.3910    2.1430    6.4910 hc        1 MOL      0.079901
      5 H2          1.2940    2.0590    5.9230 hc        1 MOL      0.079901
      6 H3          0.4710    3.6320    6.0400 hc        1 MOL      0.079901
      7 N1         -1.3600    1.8350    4.1150 n         1 MOL     -0.572158
      8 C3         -1.9280    1.6520    2.7700 c3        1 MOL      0.186974
      9 C4         -2.3750    2.9670    2.1430 c         1 MOL      0.394037
     10 O2         -3.2500    3.6270    2.7210 o         1 MOL     -0.558800
     11 C5         -3.0630    0.6370    2.8630 c3        1 MOL     -0.080751
     12 C6         -3.6890    0.0920    1.4990 c         1 MOL      0.727841
     13 O3         -3.2310    0.4340    0.3760 o         1 MOL     -0.729986
     14 O4         -4.7270   -0.6130    1.5270 o         1 MOL     -0.729986
     15 H4         -1.8190    1.5280    4.9570 hn        1 MOL      0.331362
     16 H5         -1.1940    1.1520    2.1400 h1        1 MOL     -0.048657
     17 H6         -3.8770    1.0160    3.4910 hc        1 MOL      0.020521
     18 H7         -2.7210   -0.2310    3.4180 hc        1 MOL      0.020521
     19 N2         -1.7320    3.3740    1.0480 n         1 MOL      0.026117
     20 C7         -1.9090    4.6880    0.4810 c3        1 MOL     -0.073228
     21 C8         -3.0770    4.7180   -0.4730 c         1 MOL      0.369085
     22 O5         -3.6890    5.8210   -0.6230 o         1 MOL     -0.568251
     23 C9         -0.6350    5.2310   -0.2200 c3        1 MOL      0.175613
     24 C10         0.6580    5.4980    0.6030 c3        1 MOL      0.017386
     25 C11         0.4720    6.2020    1.9440 c3        1 MOL     -0.070716
     26 C12        -0.1280    7.5810    1.6980 c3        1 MOL      0.144100
     27 N3         -0.3490    8.2850    2.9740 n4        1 MOL     -0.357762
     28 H8         -1.0180    2.7890    0.6260 hn        1 MOL      0.101032
     29 H9         -2.1640    5.4410    1.2240 h1        1 MOL      0.054311
     30 H10        -0.8340    6.1710   -0.7400 hc        1 MOL     -0.048468
     31 H11        -0.3120    4.5060   -0.9690 hc        1 MOL     -0.048468
     32 H12         1.2470    6.0530   -0.1290 hc        1 MOL      0.007356
     33 H13         1.0910    4.5020    0.7350 hc        1 MOL      0.007356
     34 H14         1.4920    6.3130    2.3160 hc        1 MOL      0.041115
     35 H15        -0.1270    5.5570    2.5860 hc        1 MOL      0.041115
     36 H16        -1.0710    7.5450    1.1490 hx        1 MOL      0.041678
     37 H17         0.6080    8.1710    1.1480 hx        1 MOL      0.041678
     38 H18         0.4340    8.7000    3.4500 hn        1 MOL      0.318608
     39 H19        -0.8410    9.1370    2.7780 hn        1 MOL      0.318608
     40 H20        -0.8330    7.7200    3.6660 hn        1 MOL      0.318608
     41 N4         -3.4240    3.6070   -1.0880 n         1 MOL     -0.252995
     42 C13        -4.4430    3.6610   -2.1040 c3        1 MOL      0.094217
     43 C14        -5.7160    2.8940   -1.7570 c         1 MOL      0.402961
     44 O6         -6.6530    2.8960   -2.5580 o         1 MOL     -0.545190
     45 C15        -3.7940    3.3600   -3.4380 c3        1 MOL     -0.147316
     46 C16        -2.8400    2.1980   -3.3990 c         1 MOL      0.733033
     47 O7         -1.9960    1.9990   -4.3310 o         1 MOL     -0.719893
     48 O8         -2.9820    1.3190   -2.5120 o         1 MOL     -0.719893
     49 H21        -2.9190    2.7340   -1.0360 hn        1 MOL      0.196936
     50 H22        -4.7960    4.6920   -2.1840 h1        1 MOL      0.082292
     51 H23        -3.2380    4.1780   -3.8960 hc        1 MOL      0.037406
     52 H24        -4.6080    3.3130   -4.1650 hc        1 MOL      0.037406
     53 N5         -5.7420    2.1930   -0.6160 n         1 MOL     -0.252308
     54 C17        -6.9070    1.5150   -0.0020 c3        1 MOL     -0.150508
     55 C18        -7.2750    0.2360   -0.6550 c         1 MOL      0.503163
     56 O9         -8.3770   -0.2470   -0.4250 o         1 MOL     -0.587869
     57 H25        -4.8750    2.3580   -0.1170 hn        1 MOL      0.206138
     58 H26        -7.7410    2.1970    0.0940 h1        1 MOL      0.117983
     59 H27        -6.6920    1.3740    1.0590 h1        1 MOL      0.117983
     60 N6         -6.4020   -0.4980   -1.3780 n         1 MOL     -0.247050
     61 C19        -6.8130   -1.8340   -1.8210 c3        1 MOL     -0.008352
     62 C20        -6.7290   -2.9320   -0.7490 c         1 MOL      0.386930
     63 O10        -7.0790   -4.0870   -0.9580 o         1 MOL     -0.550241
     64 C21        -5.9550   -2.3160   -2.9800 c3        1 MOL     -0.210521
     65 C22        -4.4900   -1.9990   -2.6370 c         1 MOL      0.606322
     66 O11        -3.8160   -1.2500   -3.3570 o         1 MOL     -0.649644
     67 O12        -3.9520   -2.4100   -1.5470 o         1 MOL     -0.649644
     68 H28        -5.5320   -0.0480   -1.6510 hn        1 MOL      0.282564
     69 H29        -7.8100   -1.8270   -2.2630 h1        1 MOL      0.125388
     70 H30        -6.2170   -1.6320   -3.7870 hc        1 MOL      0.067398
     71 H31        -6.1510   -3.3540   -3.2230 hc        1 MOL      0.067398
     72 N7         -6.3630   -2.6510    0.5110 n         1 MOL     -0.136227
     73 C23        -6.3370   -3.5620    1.5950 c3        1 MOL     -0.094060
     74 C24        -4.9530   -4.2160    1.8400 c         1 MOL      0.506593
     75 O13        -4.9390   -5.2060    2.6270 o         1 MOL     -0.568018
     76 H32        -5.9700   -1.7280    0.6570 hn        1 MOL      0.244983
     77 H33        -7.1430   -4.2920    1.5900 h1        1 MOL      0.071715
     78 H34        -6.5410   -2.9430    2.4670 h1        1 MOL      0.071715
     79 N8         -3.8710   -3.7770    1.1470 n         1 MOL     -0.160956
     80 C25        -2.5290   -4.4180    1.1420 c3        1 MOL     -0.358163
     81 C26        -1.4050   -3.3260    1.1350 c         1 MOL      0.915785
     82 O14        -1.4880   -2.2920    0.4790 o         1 MOL     -0.742557
     83 C27        -2.3370   -5.3610   -0.0490 c3        1 MOL      0.499059
     84 C28        -3.1040   -6.7080    0.1120 c3        1 MOL     -0.575329
     85 O15        -2.5650   -4.8630   -1.2820 oh        1 MOL     -0.582763
     86 H35        -4.0200   -2.8970    0.6860 hn        1 MOL      0.117937
     87 H36        -2.4510   -5.0360    2.0380 h1        1 MOL      0.117745
     88 H37        -1.2680   -5.5770   -0.0080 h1        1 MOL     -0.024003
     89 H38        -3.2330   -4.1790   -1.1780 ho        1 MOL      0.382964
     90 H39        -3.0450   -7.0840    1.1380 hc        1 MOL      0.151934
     91 H40        -4.1560   -6.5860   -0.0960 hc        1 MOL      0.151934
     92 H41        -2.7520   -7.4460   -0.6010 hc        1 MOL      0.151934
     93 N9         -0.3580   -3.6130    1.8750 n         1 MOL     -0.755450
     94 C29         0.8320   -2.7090    1.9390 c3        1 MOL      0.024103
     95 C30         1.9390   -3.3100    1.1240 c         1 MOL      0.602720
     96 O16         2.3340   -4.4350    1.4520 o         1 MOL     -0.566536
     97 C31         1.1870   -2.4430    3.3870 c3        1 MOL      0.235572
     98 C32         0.0810   -1.7550    4.1510 c3        1 MOL      0.113144
     99 C33         2.3910   -1.5680    3.5540 c3        1 MOL     -0.414106
    100 C34         0.0010   -2.0570    5.6360 c3        1 MOL     -0.332925
    101 H42        -0.4040   -4.4730    2.3930 hn        1 MOL      0.362606
    102 H43         0.7650   -1.7620    1.4130 h1        1 MOL      0.116240
    103 H44         1.4620   -3.3760    3.8810 hc        1 MOL      0.006243
    104 H45        -0.8800   -2.0180    3.6920 hc        1 MOL      0.002739
    105 H46         0.0300   -0.6850    3.9660 hc        1 MOL      0.002739
    106 H47         2.2880   -0.6030    3.0640 hc        1 MOL      0.080889
    107 H48         2.5210   -1.4540    4.6330 hc        1 MOL      0.080889
    108 H49         3.2680   -2.1060    3.1970 hc        1 MOL      0.080889
    109 H50         0.9130   -1.7730    6.1640 hc        1 MOL      0.076109
    110 H51        -0.8990   -1.5710    6.0030 hc        1 MOL      0.076109
    111 H52        -0.0520   -3.1150    5.8700 hc        1 MOL      0.076109
    112 N10         2.4280   -2.6030    0.0860 n         1 MOL     -0.075185
    113 C35         3.5990   -2.9910   -0.7040 c3        1 MOL     -0.111614
    114 C36         4.9130   -2.6500    0.0150 c         1 MOL      0.335752
    115 O17         4.9930   -1.9920    1.0320 o         1 MOL     -0.316117
    116 C37         3.5410   -2.3960   -2.1040 c3        1 MOL      0.247855
    117 C38         2.4220   -2.6980   -2.9980 c3        1 MOL     -0.537667
    118 O18         3.5970   -0.9880   -1.9480 oh        1 MOL     -0.524759
    119 H53         2.2290   -1.6100    0.0420 hn        1 MOL     -0.180721
    120 H54         3.5520   -4.0730   -0.8480 h1        1 MOL      0.095687
    121 H55         4.4540   -2.7490   -2.5910 h1        1 MOL      0.046029
    122 H56         2.7040   -0.7250   -1.7110 ho        1 MOL      0.371340
    123 H57         1.4850   -2.3710   -2.5450 hc        1 MOL      0.157637
    124 H58         2.6110   -2.2460   -3.9790 hc        1 MOL      0.157637
    125 H59         2.2990   -3.7820   -3.0660 hc        1 MOL      0.157637
    126 N11         6.0930   -3.1650   -0.5060 n         1 MOL     -0.320978
    127 C39         7.4440   -2.7580   -0.1200 c3        1 MOL     -0.064160
    128 C40         7.5220   -1.2530   -0.1530 c         1 MOL      0.447971
    129 O19         7.9900   -0.6400    0.8330 o         1 MOL     -0.500622
    130 C41         8.5160   -3.3970   -0.9740 c3        1 MOL      0.199248
    131 C42         8.5930   -4.9670   -0.8720 c3        1 MOL     -0.171445
    132 O20         8.3060   -3.1630   -2.3550 oh        1 MOL     -0.637404
    133 H60         6.0750   -3.6130   -1.4150 hn        1 MOL      0.275394
    134 H61         7.6380   -3.0140    0.9280 h1        1 MOL      0.115880
    135 H62         9.4850   -2.9870   -0.6980 h1        1 MOL      0.057207
    136 H63         9.1040   -3.5240   -2.7570 ho        1 MOL      0.413998
    137 H64         7.5690   -5.3580   -0.8620 hc        1 MOL      0.052824
    138 H65         9.2520   -5.4450   -1.6020 hc        1 MOL      0.052824
    139 H66         9.1180   -5.2030    0.0470 hc        1 MOL      0.052824
    140 N12         7.0670   -0.5430   -1.1810 n         1 MOL     -0.336542
    141 C43         7.0370    0.9440   -1.1510 c3        1 MOL     -0.017793
    142 C44         6.1970    1.5660   -0.0320 c         1 MOL      0.277394
    143 O21         6.6530    2.5220    0.6310 o         1 MOL     -0.511576
    144 C45         6.4710    1.5210   -2.4900 c3        1 MOL      0.004584
    145 C46         6.7160    3.0110   -2.8110 c3        1 MOL     -0.039182
    146 C47         6.3840    3.2520   -4.2810 c3        1 MOL     -0.092666
    147 C48         4.9240    3.1930   -4.4700 c3        1 MOL      0.246604
    148 N13         4.4970    3.7710   -5.7750 n4        1 MOL     -0.589299
    149 H67         6.6830   -1.0070   -1.9860 hn        1 MOL      0.238731
    150 H68         8.0720    1.2600   -1.0000 h1        1 MOL      0.118029
    151 H69         5.4110    1.2950   -2.6150 hc        1 MOL      0.001667
    152 H70         7.0720    0.9570   -3.1990 hc        1 MOL      0.001667
    153 H71         7.7680    3.1660   -2.5630 hc        1 MOL      0.045963
    154 H72         6.0630    3.5750   -2.1530 hc        1 MOL      0.045963
    155 H73         6.7890    2.5220   -4.9840 hc        1 MOL      0.045177
    156 H74         6.7460    4.2450   -4.5470 hc        1 MOL      0.045177
    157 H75         4.4200    3.7830   -3.7210 hx        1 MOL      0.039121
    158 H76         4.4750    2.2130   -4.2700 hx        1 MOL      0.039121
    159 H77         4.3960    4.7790   -5.7890 hn        1 MOL      0.383273
    160 H78         5.0790    3.3640   -6.4990 hn        1 MOL      0.383273
    161 H79         3.5390    3.5210   -5.9690 hn        1 MOL      0.383273
    162 N14         4.9880    1.0580    0.0680 n         1 MOL     -0.013367
    163 C49         4.0660    1.6010    1.0990 c3        1 MOL     -0.208006
    164 C50         4.4610    1.2030    2.5440 c         1 MOL      0.484354
    165 O22         3.9130    1.8760    3.3640 o         1 MOL     -0.538935
    166 C51         2.6540    1.1200    0.7750 c3        1 MOL     -0.085523
    167 C52         2.0050    1.6280   -0.5510 c3        1 MOL     -0.225178
    168 C53         0.6980    0.8350   -0.6760 c         1 MOL      0.719801
    169 O23        -0.4470    1.4170   -0.6920 o         1 MOL     -0.625536
    170 O24         0.7650   -0.3780   -0.9810 o         1 MOL     -0.625536
    171 H80         4.6620    0.2970   -0.5090 hn        1 MOL      0.272337
    172 H81         4.1320    2.6850    1.1370 h1        1 MOL      0.120054
    173 H82         1.9240    1.4780    1.5020 hc        1 MOL      0.145289
    174 H83         2.6930    0.0390    0.8500 hc        1 MOL      0.145289
    175 H84         2.7060    1.3920   -1.3480 hc        1 MOL      0.021079
    176 H85         1.7740    2.6770   -0.3790 hc        1 MOL      0.021079
    177 N15         5.3750    0.3050    2.8680 n         1 MOL     -0.060191
    178 C54         6.0510    0.1950    4.1840 c3        1 MOL     -0.342646
    179 H86         5.3010    0.1380    4.9730 h1        1 MOL      0.126720
    180 H87         6.6660   -0.7040    4.2020 h1        1 MOL      0.126720
    181 H88         6.6800    1.0700    4.3440 h1        1 MOL      0.126720
    182 H89         5.7450   -0.3090    2.1580 hn        1 MOL      0.132229
    183 Ca1        -1.8210   -0.7730   -1.5160 Ca        1 MOL      1.742217
    184 O25        -0.7690   -0.3360   -3.8840 oh        1 MOL     -0.883367
    185 H90        -0.9790   -0.9990   -4.5470 ho        1 MOL      0.403441
    186 H91        -1.1440    0.4760   -4.2320 ho        1 MOL      0.403441
    187 O26        -1.1300   -3.1640   -2.6390 oh        1 MOL     -0.883367
    188 H92        -1.5530   -3.9320   -2.2530 ho        1 MOL      0.403441
    189 H93        -0.7520   -3.4830   -3.4560 ho        1 MOL      0.403441
@<TRIPOS>BOND
     1    1    2 1   
     2    1    4 1   
     3    1    5 1   
     4    1    6 1   
     5    2    3 2   
     6    2    7 1   
     7    7    8 1   
     8    7   15 1   
     9    8    9 1   
    10    8   11 1   
    11    8   16 1   
    12    9   10 2   
    13    9   19 1   
    14   11   12 1   
    15   11   17 1   
    16   11   18 1   
    17   12   13 1   
    18   12   14 1   
    19   19   20 1   
    20   19   28 1   
    21   20   21 1   
    22   20   23 1   
    23   20   29 1   
    24   21   22 2   
    25   21   41 1   
    26   23   24 1   
    27   23   30 1   
    28   23   31 1   
    29   24   25 1   
    30   24   32 1   
    31   24   33 1   
    32   25   26 1   
    33   25   34 1   
    34   25   35 1   
    35   26   27 1   
    36   26   36 1   
    37   26   37 1   
    38   27   38 1   
    39   27   39 1   
    40   27   40 1   
    41   41   42 1   
    42   41   49 1   
    43   42   43 1   
    44   42   45 1   
    45   42   50 1   
    46   43   44 2   
    47   43   53 1   
    48   45   46 1   
    49   45   51 1   
    50   45   52 1   
    51   46   47 1   
    52   46   48 1   
    53   53   54 1   
    54   53   57 1   
    55   54   55 1   
    56   54   58 1   
    57   54   59 1   
    58   55   56 2   
    59   55   60 1   
    60   60   61 1   
    61   60   68 1   
    62   61   62 1   
    63   61   64 1   
    64   61   69 1   
    65   62   63 2   
    66   62   72 1   
    67   64   65 1   
    68   64   70 1   
    69   64   71 1   
    70   65   66 1   
    71   65   67 1   
    72   72   73 1   
    73   72   76 1   
    74   73   74 1   
    75   73   77 1   
    76   73   78 1   
    77   74   75 2   
    78   74   79 1   
    79   79   80 1   
    80   79   86 1   
    81   80   81 1   
    82   80   83 1   
    83   80   87 1   
    84   81   82 2   
    85   81   93 1   
    86   83   84 1   
    87   83   85 1   
    88   83   88 1   
    89   84   90 1   
    90   84   91 1   
    91   84   92 1   
    92   85   89 1   
    93   93   94 1   
    94   93  101 1   
    95   94   95 1   
    96   94   97 1   
    97   94  102 1   
    98   95   96 2   
    99   95  112 1   
   100   97   98 1   
   101   97   99 1   
   102   97  103 1   
   103   98  100 1   
   104   98  104 1   
   105   98  105 1   
   106   99  106 1   
   107   99  107 1   
   108   99  108 1   
   109  100  109 1   
   110  100  110 1   
   111  100  111 1   
   112  112  113 1   
   113  112  119 1   
   114  113  114 1   
   115  113  116 1   
   116  113  120 1   
   117  114  115 2   
   118  114  126 1   
   119  116  117 1   
   120  116  118 1   
   121  116  121 1   
   122  117  123 1   
   123  117  124 1   
   124  117  125 1   
   125  118  122 1   
   126  126  127 1   
   127  126  133 1   
   128  127  128 1   
   129  127  130 1   
   130  127  134 1   
   131  128  129 2   
   132  128  140 1   
   133  130  131 1   
   134  130  132 1   
   135  130  135 1   
   136  131  137 1   
   137  131  138 1   
   138  131  139 1   
   139  132  136 1   
   140  140  141 1   
   141  140  149 1   
   142  141  142 1   
   143  141  144 1   
   144  141  150 1   
   145  142  143 2   
   146  142  162 1   
   147  144  145 1   
   148  144  151 1   
   149  144  152 1   
   150  145  146 1   
   151  145  153 1   
   152  145  154 1   
   153  146  147 1   
   154  146  155 1   
   155  146  156 1   
   156  147  148 1   
   157  147  157 1   
   158  147  158 1   
   159  148  159 1   
   160  148  160 1   
   161  148  161 1   
   162  162  163 1   
   163  162  171 1   
   164  163  164 1   
   165  163  166 1   
   166  163  172 1   
   167  164  165 2   
   168  164  177 1   
   169  166  167 1   
   170  166  173 1   
   171  166  174 1   
   172  167  168 1   
   173  167  175 1   
   174  167  176 1   
   175  168  169 1   
   176  168  170 1   
   177  177  178 1   
   178  177  182 1   
   179  178  179 1   
   180  178  180 1   
   181  178  181 1   
   182  184  185 1   
   183  184  186 1   
   184  187  188 1   
   185  187  189 1   
@<TRIPOS>SUBSTRUCTURE
     1 MOL         1 TEMP              0 ****  ****    0 ROOT
