@<TRIPOS>MOLECULE
MOL
  175   173     1     0     0
SMALL
resp


@<TRIPOS>ATOM
      1 C1         -0.3030   -4.2320    5.5450 c3        1 MOL     -0.500674
      2 C2          0.3230   -3.9750    4.1160 c         1 MOL      0.785534
      3 O1         -0.2490   -4.3250    3.0830 o         1 MOL     -0.564829
      4 H1          0.4970   -4.3480    6.2760 hc        1 MOL      0.119006
      5 H2         -0.9290   -3.3850    5.8250 hc        1 MOL      0.119006
      6 H3         -0.9060   -5.1390    5.5200 hc        1 MOL      0.119006
      7 N1          1.5880   -3.5600    4.1150 n         1 MOL     -0.714070
      8 C3          2.3190   -3.3000    2.8470 c3        1 MOL      0.320206
      9 C4          2.3090   -4.6380    1.9200 c         1 MOL      0.543822
     10 O2          2.5580   -5.7350    2.4140 o         1 MOL     -0.589458
     11 C5          3.7340   -2.8850    3.1000 c3        1 MOL     -0.372201
     12 C6          4.3900   -2.4770    1.7560 c         1 MOL      0.719775
     13 O3          3.8260   -2.0120    0.7180 o         1 MOL     -0.656113
     14 O4          5.6040   -2.5390    1.7200 o         1 MOL     -0.656113
     15 H4          2.1730   -3.4530    4.9290 hn        1 MOL      0.341192
     16 H5          1.8110   -2.5030    2.2940 h1        1 MOL      0.026922
     17 H6          4.3640   -3.6790    3.5050 hc        1 MOL      0.068820
     18 H7          3.5810   -2.0340    3.7720 hc        1 MOL      0.068820
     19 N2          2.0220   -4.3970    0.6150 n         1 MOL     -0.422231
     20 C7          2.0790   -5.3370   -0.5540 c3        1 MOL      0.278164
     21 C8          3.3830   -5.0940   -1.4240 c         1 MOL      0.345550
     22 O5          3.5300   -5.9690   -2.2930 o         1 MOL     -0.549703
     23 C9          0.9500   -5.0720   -1.4910 c3        1 MOL     -0.266013
     24 H8          1.6440   -3.4960    0.3840 hn        1 MOL      0.284467
     25 H9          2.0970   -6.3990   -0.3380 h1        1 MOL      0.004921
     26 H10         0.8890   -5.7130   -2.3750 hc        1 MOL      0.081332
     27 H11         0.0700   -5.0950   -0.8580 hc        1 MOL      0.081332
     28 H12         0.9020   -4.0410   -1.8160 hc        1 MOL      0.081332
     29 N3          4.1310   -3.9660   -1.3890 n         1 MOL     -0.278626
     30 C10         4.9550   -3.5720   -2.5710 c3        1 MOL      0.023157
     31 C11         6.1900   -2.6010   -2.3100 c         1 MOL      0.391506
     32 O6          7.0440   -2.4290   -3.1990 o         1 MOL     -0.569416
     33 C12         4.0730   -2.8110   -3.5940 c3        1 MOL     -0.143708
     34 C13         3.2430   -1.6870   -3.0380 c         1 MOL      0.752179
     35 O7          2.0660   -1.6510   -3.4960 o         1 MOL     -0.723660
     36 O8          3.6840   -0.9870   -2.0700 o         1 MOL     -0.723660
     37 H13         3.9550   -3.2630   -0.6820 hn        1 MOL      0.163328
     38 H14         5.4520   -4.4370   -3.0180 h1        1 MOL      0.087373
     39 H15         3.3910   -3.5290   -4.0550 hc        1 MOL      0.036340
     40 H16         4.7600   -2.3210   -4.2820 hc        1 MOL      0.036340
     41 N4          6.4250   -2.0910   -1.1450 n         1 MOL     -0.070906
     42 C14         7.5210   -1.2860   -0.6850 c3        1 MOL     -0.203550
     43 C15         7.5360    0.1990   -1.1500 c         1 MOL      0.486149
     44 O9          8.5240    0.8260   -1.2510 o         1 MOL     -0.565246
     45 H17         5.7050   -2.2740   -0.4560 hn        1 MOL      0.091156
     46 H18         8.4730   -1.7070   -0.9990 h1        1 MOL      0.100290
     47 H19         7.5220   -1.2270    0.4010 h1        1 MOL      0.100290
     48 N5          6.3330    0.7500   -1.4460 n         1 MOL     -0.137744
     49 C16         6.1940    2.1040   -1.9730 c3        1 MOL     -0.119143
     50 C17         6.2320    3.2870   -0.8680 c         1 MOL      0.495040
     51 O10         6.4230    4.4390   -1.2440 o         1 MOL     -0.537924
     52 C18         5.0390    2.0870   -2.9320 c3        1 MOL      0.025157
     53 C19         3.6150    2.2160   -2.4650 c         1 MOL      0.514214
     54 N6          2.6690    2.4320   -3.3460 n         1 MOL     -0.679888
     55 O11         3.3770    2.0880   -1.2350 o         1 MOL     -0.618828
     56 H20         5.6070    0.0470   -1.5200 hn        1 MOL      0.191649
     57 H21         7.1230    2.2840   -2.5120 h1        1 MOL      0.099708
     58 H22         5.0720    1.2800   -3.6590 hc        1 MOL      0.017287
     59 H23         5.1570    2.9660   -3.5630 hc        1 MOL      0.017287
     60 H24         2.8230    2.5450   -4.3370 hn        1 MOL      0.361604
     61 H25         1.7340    2.4540   -2.9720 hn        1 MOL      0.361604
     62 N7          6.0810    3.0530    0.4230 n         1 MOL     -0.294308
     63 C20         6.0260    4.0940    1.5130 c3        1 MOL     -0.116987
     64 C21         4.6920    4.8020    1.8400 c         1 MOL      0.442613
     65 O12         4.6170    5.7730    2.6220 o         1 MOL     -0.573465
     66 H26         6.2520    2.0800    0.6660 hn        1 MOL      0.212766
     67 H27         6.7180    4.8930    1.2240 h1        1 MOL      0.094975
     68 H28         6.5300    3.7010    2.3910 h1        1 MOL      0.094975
     69 N8          3.6730    4.3160    1.1550 n         1 MOL     -0.191985
     70 C22         2.2270    4.7740    1.2530 c3        1 MOL     -0.006581
     71 C23         1.2760    3.6240    1.4940 c         1 MOL      0.299446
     72 O13         1.5270    2.5130    1.0620 o         1 MOL     -0.420794
     73 C24         1.8170    5.4980   -0.0690 c3        1 MOL      0.510611
     74 C25         2.1480    6.9960   -0.1660 c3        1 MOL     -0.406471
     75 O14         2.2970    4.8430   -1.2010 oh        1 MOL     -0.574259
     76 H29         3.8180    3.5130    0.5480 hn        1 MOL      0.215996
     77 H30         2.0800    5.5160    2.0310 h1        1 MOL      0.060086
     78 H31         0.7350    5.4410   -0.1420 h1        1 MOL     -0.035287
     79 H32         1.7940    4.0250   -1.2540 ho        1 MOL      0.363120
     80 H33         1.7120    7.4140   -1.0750 hc        1 MOL      0.095190
     81 H34         1.6540    7.4460    0.6990 hc        1 MOL      0.095190
     82 H35         3.2230    7.1020   -0.0290 hc        1 MOL      0.095190
     83 N9          0.0640    3.8700    2.1340 n         1 MOL     -0.441216
     84 C26        -1.0770    2.9020    2.0850 c3        1 MOL     -0.020548
     85 C27        -2.0430    3.2970    0.9160 c         1 MOL      0.410806
     86 O15        -2.6870    4.3370    0.8910 o         1 MOL     -0.578269
     87 C28        -1.9260    2.9180    3.3980 c3        1 MOL      0.082023
     88 C29        -1.0790    2.0520    4.4830 c3        1 MOL      0.119500
     89 C30        -3.3900    2.3620    3.3020 c3        1 MOL     -0.243027
     90 C31        -1.8050    1.7970    5.7870 c3        1 MOL     -0.120783
     91 H36        -0.1250    4.7720    2.5570 hn        1 MOL      0.285793
     92 H37        -0.8610    1.8590    1.8730 h1        1 MOL      0.131296
     93 H38        -1.8990    3.9200    3.8240 hc        1 MOL      0.005772
     94 H39        -0.1960    2.6270    4.7250 hc        1 MOL     -0.040496
     95 H40        -0.7810    1.1600    3.9260 hc        1 MOL     -0.040496
     96 H41        -3.4030    1.3290    2.9640 hc        1 MOL      0.056831
     97 H42        -3.8920    2.3990    4.2700 hc        1 MOL      0.056831
     98 H43        -3.8960    3.0760    2.6480 hc        1 MOL      0.056831
     99 H44        -2.6720    1.1350    5.8400 hc        1 MOL      0.021517
    100 H45        -1.1150    1.2980    6.4600 hc        1 MOL      0.021517
    101 H46        -1.9470    2.7810    6.2230 hc        1 MOL      0.021517
    102 N10        -2.0830    2.3640    0.0250 n         1 MOL     -0.049074
    103 C32        -2.8980    2.2870   -1.1460 c3        1 MOL      0.020736
    104 C33        -4.2400    1.6520   -0.9330 c         1 MOL      0.500161
    105 O16        -4.3390    0.8000    0.0050 o         1 MOL     -0.471251
    106 C34        -2.0790    1.5310   -2.2160 c3        1 MOL     -0.193808
    107 C35        -0.5820    1.7230   -2.0970 c         1 MOL      0.723955
    108 O17         0.1350    0.9800   -1.3600 o         1 MOL     -0.702544
    109 O18        -0.1190    2.7280   -2.6760 o         1 MOL     -0.702544
    110 H47        -1.3700    1.6490    0.1310 hn        1 MOL      0.160903
    111 H48        -2.9670    3.3010   -1.5390 h1        1 MOL      0.046350
    112 H49        -2.4790    1.8130   -3.1950 hc        1 MOL      0.068283
    113 H50        -2.2890    0.4640   -2.1020 hc        1 MOL      0.068283
    114 N11        -5.2670    1.9700   -1.7110 n         1 MOL     -0.679025
    115 C36        -6.5570    1.4680   -1.3110 c3        1 MOL      0.439720
    116 C37        -6.7030   -0.0470   -1.2720 c         1 MOL      0.408468
    117 O19        -7.1740   -0.4870   -0.2930 o         1 MOL     -0.508450
    118 C38        -7.5710    2.0390   -2.3250 c3        1 MOL     -0.221152
    119 C39        -8.9850    1.6440   -1.8920 ca        1 MOL      0.128088
    120 C40        -9.6250    2.1810   -0.7210 ca        1 MOL     -0.258562
    121 C41        -9.6900    0.5410   -2.4980 ca        1 MOL     -0.258562
    122 C42       -10.8510    1.7430   -0.1940 ca        1 MOL      0.027223
    123 C43       -10.8850    0.0370   -1.9310 ca        1 MOL      0.027223
    124 C44       -11.4900    0.6660   -0.8560 ca        1 MOL     -0.249958
    125 H51        -5.2030    2.5320   -2.5510 hn        1 MOL      0.349608
    126 H52        -6.7950    1.9070   -0.3390 h1        1 MOL      0.041439
    127 H53        -7.4460    1.5650   -3.3020 hc        1 MOL      0.068312
    128 H54        -7.4750    3.1140   -2.4670 hc        1 MOL      0.068312
    129 H55        -9.0170    2.9760   -0.2900 ha        1 MOL      0.118910
    130 H56        -9.2440    0.0220   -3.3430 ha        1 MOL      0.118910
    131 H57       -11.2240    2.1630    0.7260 ha        1 MOL      0.087401
    132 H58       -11.4090   -0.7540   -2.4410 ha        1 MOL      0.087401
    133 H59       -12.3320    0.2250   -0.3340 ha        1 MOL      0.131395
    134 N12        -6.0980   -0.8990   -2.2180 n         1 MOL     -0.090759
    135 C45        -6.0080   -2.3550   -2.0270 c3        1 MOL     -0.000720
    136 C46        -5.3320   -2.9240   -0.8110 c         1 MOL      0.361926
    137 O20        -5.5070   -4.1240   -0.5170 o         1 MOL     -0.509894
    138 C47        -5.3690   -2.9040   -3.3130 c3        1 MOL     -0.117258
    139 C48        -4.6910   -1.7060   -3.9450 c3        1 MOL     -0.074482
    140 C49        -5.5180   -0.4610   -3.4230 c3        1 MOL     -0.039026
    141 H60        -6.9840   -2.8250   -2.0130 h1        1 MOL      0.067843
    142 H61        -4.7160   -3.7310   -3.0560 hc        1 MOL      0.063632
    143 H62        -6.2020   -3.3270   -3.8720 hc        1 MOL      0.063632
    144 H63        -3.6870   -1.6310   -3.5390 hc        1 MOL      0.058420
    145 H64        -4.5290   -1.7690   -5.0210 hc        1 MOL      0.058420
    146 H65        -4.9070    0.4180   -3.5980 h1        1 MOL      0.015017
    147 H66        -6.3400   -0.3560   -4.1310 h1        1 MOL      0.015017
    148 N13        -4.5430   -2.0970   -0.1320 n         1 MOL     -0.183360
    149 C50        -4.0490   -2.4010    1.1850 c3        1 MOL     -0.056472
    150 C51        -4.9910   -1.9420    2.3040 c         1 MOL      0.434819
    151 O21        -5.2100   -2.6810    3.2550 o         1 MOL     -0.561992
    152 C52        -2.6620   -1.8230    1.4670 c3        1 MOL      0.304842
    153 C53        -1.6450   -2.0240    0.3520 c3        1 MOL     -0.450509
    154 C54        -0.2280   -1.5550    0.6970 c         1 MOL      0.746751
    155 O22         0.7900   -1.9880    0.0880 o         1 MOL     -0.718626
    156 O23         0.0190   -0.6270    1.5200 o         1 MOL     -0.718626
    157 H67        -4.4340   -1.1400   -0.4140 hn        1 MOL      0.180398
    158 H68        -3.9190   -3.4700    1.3720 h1        1 MOL      0.096686
    159 H69        -2.3020   -2.2300    2.4140 hc        1 MOL     -0.047774
    160 H70        -2.6980   -0.7470    1.6520 hc        1 MOL     -0.047774
    161 H71        -1.9970   -1.4150   -0.4790 hc        1 MOL      0.108437
    162 H72        -1.6160   -3.0980    0.1510 hc        1 MOL      0.108437
    163 N14        -5.7070   -0.8240    2.2150 n         1 MOL     -0.087939
    164 C55        -6.5990   -0.2680    3.2580 c3        1 MOL     -0.148180
    165 H73        -7.4390    0.2410    2.7840 h1        1 MOL      0.066074
    166 H74        -6.9730   -1.0760    3.8870 h1        1 MOL      0.066074
    167 H75        -6.0430    0.4420    3.8710 h1        1 MOL      0.066074
    168 H76        -5.4790   -0.1970    1.4540 hn        1 MOL      0.113819
    169 Ca1         2.3050    0.0090   -0.0440 Ca        1 MOL      1.690245
    170 O24         2.1770    0.1240    2.6270 oh        1 MOL     -0.776985
    171 H77         1.2580   -0.1280    2.5550 ho        1 MOL      0.375517
    172 H78         2.2170    0.6690    3.4200 ho        1 MOL      0.375517
    173 O25         4.5810    0.7160    1.0940 oh        1 MOL     -0.776985
    174 H79         5.3580    0.1810    0.9470 ho        1 MOL      0.375517
    175 H80         4.5230    0.8030    2.0430 ho        1 MOL      0.375517
@<TRIPOS>BOND
     1    1    2 1   
     2    1    4 1   
     3    1    5 1   
     4    1    6 1   
     5    2    3 2   
     6    2    7 1   
     7    7    8 1   
     8    7   15 1   
     9    8    9 1   
    10    8   11 1   
    11    8   16 1   
    12    9   10 2   
    13    9   19 1   
    14   11   12 1   
    15   11   17 1   
    16   11   18 1   
    17   12   13 1   
    18   12   14 1   
    19   19   20 1   
    20   19   24 1   
    21   20   21 1   
    22   20   23 1   
    23   20   25 1   
    24   21   22 2   
    25   21   29 1   
    26   23   26 1   
    27   23   27 1   
    28   23   28 1   
    29   29   30 1   
    30   29   37 1   
    31   30   31 1   
    32   30   33 1   
    33   30   38 1   
    34   31   32 2   
    35   31   41 1   
    36   33   34 1   
    37   33   39 1   
    38   33   40 1   
    39   34   35 1   
    40   34   36 1   
    41   41   42 1   
    42   41   45 1   
    43   42   43 1   
    44   42   46 1   
    45   42   47 1   
    46   43   44 2   
    47   43   48 1   
    48   48   49 1   
    49   48   56 1   
    50   49   50 1   
    51   49   52 1   
    52   49   57 1   
    53   50   51 2   
    54   50   62 1   
    55   52   53 1   
    56   52   58 1   
    57   52   59 1   
    58   53   54 1   
    59   53   55 2   
    60   54   60 1   
    61   54   61 1   
    62   62   63 1   
    63   62   66 1   
    64   63   64 1   
    65   63   67 1   
    66   63   68 1   
    67   64   65 2   
    68   64   69 1   
    69   69   70 1   
    70   69   76 1   
    71   70   71 1   
    72   70   73 1   
    73   70   77 1   
    74   71   72 2   
    75   71   83 1   
    76   73   74 1   
    77   73   75 1   
    78   73   78 1   
    79   74   80 1   
    80   74   81 1   
    81   74   82 1   
    82   75   79 1   
    83   83   84 1   
    84   83   91 1   
    85   84   85 1   
    86   84   87 1   
    87   84   92 1   
    88   85   86 2   
    89   85  102 1   
    90   87   88 1   
    91   87   89 1   
    92   87   93 1   
    93   88   90 1   
    94   88   94 1   
    95   88   95 1   
    96   89   96 1   
    97   89   97 1   
    98   89   98 1   
    99   90   99 1   
   100   90  100 1   
   101   90  101 1   
   102  102  103 1   
   103  102  110 1   
   104  103  104 1   
   105  103  106 1   
   106  103  111 1   
   107  104  105 2   
   108  104  114 1   
   109  106  107 1   
   110  106  112 1   
   111  106  113 1   
   112  107  108 1   
   113  107  109 1   
   114  114  115 1   
   115  114  125 1   
   116  115  116 1   
   117  115  118 1   
   118  115  126 1   
   119  116  117 2   
   120  116  134 1   
   121  118  119 1   
   122  118  127 1   
   123  118  128 1   
   124  119  120 ar  
   125  119  121 ar  
   126  120  122 ar  
   127  120  129 1   
   128  121  123 ar  
   129  121  130 1   
   130  122  124 ar  
   131  122  131 1   
   132  123  124 ar  
   133  123  132 1   
   134  124  133 1   
   135  134  135 1   
   136  134  140 1   
   137  135  136 1   
   138  135  138 1   
   139  135  141 1   
   140  136  137 2   
   141  136  148 1   
   142  138  139 1   
   143  138  142 1   
   144  138  143 1   
   145  139  140 1   
   146  139  144 1   
   147  139  145 1   
   148  140  146 1   
   149  140  147 1   
   150  148  149 1   
   151  148  157 1   
   152  149  150 1   
   153  149  152 1   
   154  149  158 1   
   155  150  151 2   
   156  150  163 1   
   157  152  153 1   
   158  152  159 1   
   159  152  160 1   
   160  153  154 1   
   161  153  161 1   
   162  153  162 1   
   163  154  155 1   
   164  154  156 1   
   165  163  164 1   
   166  163  168 1   
   167  164  165 1   
   168  164  166 1   
   169  164  167 1   
   170  170  171 1   
   171  170  172 1   
   172  173  174 1   
   173  173  175 1   
@<TRIPOS>SUBSTRUCTURE
     1 MOL         1 TEMP              0 ****  ****    0 ROOT
