@<TRIPOS>MOLECULE
MOL
  176   174     1     0     0
SMALL
resp


@<TRIPOS>ATOM
      1 C1          1.5230    4.1070    6.0960 c3        1 MOL     -0.299981
      2 C2          1.2840    3.5580    4.6590 c         1 MOL      0.707067
      3 O1          2.2420    3.1860    3.9730 o         1 MOL     -0.576878
      4 H1          0.6570    4.6880    6.4110 hc        1 MOL      0.076477
      5 H2          1.6710    3.2740    6.7840 hc        1 MOL      0.076477
      6 H3          2.4080    4.7440    6.1000 hc        1 MOL      0.076477
      7 N1          0.0260    3.4070    4.2260 n         1 MOL     -0.591793
      8 C3         -0.4740    3.0380    2.9750 c3        1 MOL      0.022702
      9 C4         -0.3370    4.1820    2.0080 c         1 MOL      0.684110
     10 O2         -0.5780    5.3330    2.3880 o         1 MOL     -0.603908
     11 C5         -1.9220    2.6130    3.0080 c3        1 MOL     -0.285389
     12 C6         -2.2250    1.7870    1.7390 c         1 MOL      1.019964
     13 O3         -2.5490    0.5680    1.8070 o         1 MOL     -0.880672
     14 O4         -2.2120    2.3630    0.6690 o         1 MOL     -0.880672
     15 H4         -0.6710    3.6520    4.9260 hn        1 MOL      0.329030
     16 H5          0.1400    2.2620    2.5250 h1        1 MOL      0.045184
     17 H6         -2.5530    3.4990    3.0540 hc        1 MOL      0.069332
     18 H7         -2.1700    1.9570    3.8510 hc        1 MOL      0.069332
     19 N2          0.0950    4.0130    0.7730 n         1 MOL     -0.510816
     20 C7          0.2530    5.0570   -0.2210 c3        1 MOL     -0.005152
     21 C8         -0.9360    5.3160   -1.1460 c         1 MOL      0.593751
     22 O5         -0.9610    6.3650   -1.7860 o         1 MOL     -0.576737
     23 C9          1.5320    4.7650   -0.9770 c3        1 MOL      0.335964
     24 C10         2.3670    5.9200   -1.4670 c3        1 MOL     -0.454624
     25 C11         3.6020    5.4200   -2.2080 c3        1 MOL      0.288159
     26 C12         4.5120    6.5870   -2.5410 c3        1 MOL      0.019769
     27 N3          5.4620    6.2360   -3.5860 n4        1 MOL     -0.465890
     28 H8          0.2700    3.0390    0.5680 hn        1 MOL      0.290444
     29 H9          0.4010    6.0070    0.2800 h1        1 MOL      0.084819
     30 H10         1.3080    4.1160   -1.8250 hc        1 MOL     -0.004184
     31 H11         2.2130    4.1700   -0.3620 hc        1 MOL     -0.004184
     32 H12         2.7140    6.4380   -0.5800 hc        1 MOL      0.090317
     33 H13         1.7280    6.5050   -2.1330 hc        1 MOL      0.090317
     34 H14         3.2520    4.8450   -3.0670 hc        1 MOL     -0.037339
     35 H15         4.1610    4.6810   -1.6180 hc        1 MOL     -0.037339
     36 H16         5.0010    6.8180   -1.6010 hx        1 MOL      0.085115
     37 H17         3.8340    7.4120   -2.7930 hx        1 MOL      0.085115
     38 H18         5.9340    7.0780   -3.9150 hn        1 MOL      0.356272
     39 H19         6.1460    5.5940   -3.1950 hn        1 MOL      0.356272
     40 H20         4.9870    5.8260   -4.3750 hn        1 MOL      0.356272
     41 N4         -2.0520    4.5260   -1.0960 n         1 MOL     -0.492054
     42 C13        -3.1120    4.7050   -2.0980 c3        1 MOL     -0.037625
     43 C14        -4.5190    4.4170   -1.5300 c         1 MOL      0.470670
     44 O6         -5.4970    4.6300   -2.1670 o         1 MOL     -0.529800
     45 C15        -2.8060    3.7280   -3.2630 c3        1 MOL     -0.233208
     46 C16        -2.4050    2.3250   -2.7700 c         1 MOL      0.789060
     47 O7         -3.2400    1.5850   -2.2300 o         1 MOL     -0.748471
     48 O8         -1.2560    1.9420   -2.8190 o         1 MOL     -0.748471
     49 H21        -2.0910    3.6790   -0.5600 hn        1 MOL      0.347259
     50 H22        -3.1080    5.7600   -2.3670 h1        1 MOL      0.148518
     51 H23        -2.0030    4.1560   -3.8570 hc        1 MOL      0.060859
     52 H24        -3.7380    3.6450   -3.8220 hc        1 MOL      0.060859
     53 N5         -4.6900    3.9440   -0.2990 n         1 MOL     -0.185539
     54 C17        -5.9920    3.5840    0.3400 c3        1 MOL     -0.384904
     55 C18        -6.6960    2.2630   -0.0730 c         1 MOL      0.820825
     56 O9         -7.8430    2.1760    0.2740 o         1 MOL     -0.611275
     57 H25        -3.8510    3.6810    0.2140 hn        1 MOL      0.188570
     58 H26        -6.6540    4.4300    0.1470 h1        1 MOL      0.149696
     59 H27        -5.7850    3.2270    1.3510 h1        1 MOL      0.149696
     60 N6         -6.0290    1.3250   -0.7110 n         1 MOL     -0.664389
     61 C19        -6.6870    0.0980   -1.1370 c3        1 MOL      0.160131
     62 C20        -6.8000   -0.9940   -0.0540 c         1 MOL      0.342456
     63 O10        -7.2020   -2.1060   -0.3110 o         1 MOL     -0.519012
     64 C21        -5.9530   -0.5510   -2.3360 c3        1 MOL     -0.307143
     65 C22        -4.8520   -1.6400   -1.8980 c         1 MOL      0.875527
     66 N7         -4.6940   -2.7410   -2.5380 n         1 MOL     -0.764324
     67 O11        -4.0810   -1.4250   -1.0440 o         1 MOL     -0.861241
     68 H28        -5.3390    1.6260   -1.3890 hn        1 MOL      0.387774
     69 H29        -7.6820    0.4210   -1.4580 h1        1 MOL      0.103584
     70 H30        -5.4570    0.2090   -2.9370 hc        1 MOL      0.086519
     71 H31        -6.6760   -1.1430   -2.9040 hc        1 MOL      0.086519
     72 H32        -5.3130   -3.0110   -3.2910 hn        1 MOL      0.344081
     73 H33        -4.0320   -3.3480   -2.0970 hn        1 MOL      0.344081
     74 N8         -6.2600   -0.8180    1.1490 n         1 MOL     -0.151048
     75 C23        -6.4890   -1.6440    2.3120 c3        1 MOL     -0.298170
     76 C24        -5.4830   -2.7830    2.5180 c         1 MOL      0.507494
     77 O12        -5.5930   -3.5630    3.5150 o         1 MOL     -0.557828
     78 H34        -5.7980    0.0650    1.3090 hn        1 MOL      0.245509
     79 H35        -7.5050   -2.0070    2.1470 h1        1 MOL      0.151290
     80 H36        -6.5430   -0.9520    3.1470 h1        1 MOL      0.151290
     81 N9         -4.5300   -2.9110    1.6050 n         1 MOL     -0.218083
     82 C25        -3.3140   -3.7210    1.7520 c3        1 MOL      0.096612
     83 C26        -1.9400   -3.0060    1.5700 c         1 MOL      0.468611
     84 O13        -1.8010   -2.0450    0.8310 o         1 MOL     -0.443313
     85 C27        -3.4960   -5.0380    1.0210 c3        1 MOL     -0.133617
     86 C28        -3.2460   -5.0740   -0.4970 ca        1 MOL      0.058627
     87 C29        -1.9550   -4.8010   -0.9470 ca        1 MOL     -0.087657
     88 C30        -4.2210   -5.5820   -1.3630 ca        1 MOL     -0.087657
     89 C31        -1.6620   -4.9010   -2.3320 ca        1 MOL     -0.305511
     90 C32        -3.9300   -5.8650   -2.6620 ca        1 MOL     -0.305511
     91 C33        -2.6610   -5.4850   -3.1560 ca        1 MOL      0.348455
     92 O14        -2.2630   -5.7270   -4.4610 oh        1 MOL     -0.551801
     93 H37        -4.6130   -2.4020    0.7290 hn        1 MOL      0.243477
     94 H38        -3.3170   -4.0440    2.7940 h1        1 MOL      0.037211
     95 H39        -4.4960   -5.4070    1.2770 hc        1 MOL      0.053737
     96 H40        -2.7640   -5.7830    1.3470 hc        1 MOL      0.053737
     97 H41        -1.1260   -4.5090   -0.3120 ha        1 MOL      0.122165
     98 H42        -5.1850   -5.8710   -0.9640 ha        1 MOL      0.122165
     99 H43        -0.7140   -4.6440   -2.7720 ha        1 MOL      0.153071
    100 H44        -4.6670   -6.3660   -3.2830 ha        1 MOL      0.153071
    101 H45        -2.7810   -6.3680   -4.9420 ho        1 MOL      0.398383
    102 N10        -0.9030   -3.4760    2.1720 n         1 MOL     -0.355840
    103 C34         0.4700   -2.9730    2.1020 c3        1 MOL      0.049734
    104 C35         1.4040   -3.9710    1.3570 c         1 MOL      0.395472
    105 O15         1.3040   -5.1970    1.5410 o         1 MOL     -0.533616
    106 C36         1.1380   -2.6700    3.4400 c3        1 MOL      0.191749
    107 C37         0.2800   -1.8510    4.4230 c3        1 MOL     -0.160570
    108 C38         2.6000   -2.1070    3.2610 c3        1 MOL     -0.252940
    109 C39        -0.0150   -0.5080    3.8620 c3        1 MOL     -0.046903
    110 H46        -1.1020   -4.2640    2.7580 hn        1 MOL      0.265723
    111 H47         0.4310   -2.0820    1.4800 h1        1 MOL     -0.006481
    112 H48         1.1960   -3.6090    3.9730 hc        1 MOL     -0.005039
    113 H49         0.7690   -1.7610    5.3820 hc        1 MOL      0.033288
    114 H50        -0.6140   -2.4580    4.5910 hc        1 MOL      0.033288
    115 H51         2.7860   -1.3920    2.4620 hc        1 MOL      0.050777
    116 H52         3.0880   -1.6300    4.1160 hc        1 MOL      0.050777
    117 H53         3.2030   -2.9860    3.0050 hc        1 MOL      0.050777
    118 H54        -0.6380   -0.5510    2.9710 hc        1 MOL      0.045740
    119 H55        -0.4690    0.0840    4.6600 hc        1 MOL      0.045740
    120 H56         0.8970    0.0350    3.6490 hc        1 MOL      0.045740
    121 N11         2.3580   -3.4470    0.5250 n         1 MOL     -0.123969
    122 C40         3.5020   -4.2030    0.0350 c3        1 MOL     -0.052164
    123 C41         4.8360   -3.4430    0.0730 c         1 MOL      0.257107
    124 O16         4.8910   -2.3010    0.5650 o         1 MOL     -0.277774
    125 C42         3.1990   -4.5350   -1.4280 c3        1 MOL     -0.235154
    126 O17         3.4420   -3.4180   -2.1750 oh        1 MOL     -0.498488
    127 H57         2.3300   -2.4480    0.3590 hn        1 MOL      0.273011
    128 H58         3.6100   -5.1390    0.5780 h1        1 MOL      0.109678
    129 H59         2.1320   -4.7130   -1.5190 h1        1 MOL      0.145408
    130 H60         3.7580   -5.3370   -1.9190 h1        1 MOL      0.145408
    131 H61         4.1190   -3.6600   -2.8150 ho        1 MOL      0.392835
    132 N12         5.9160   -4.1330   -0.1890 n         1 MOL     -0.224262
    133 C43         7.2320   -3.6280   -0.0240 c3        1 MOL     -0.056388
    134 C44         7.5960   -2.2490   -0.6520 c         1 MOL      0.491363
    135 O18         8.1620   -1.3680    0.0270 o         1 MOL     -0.500942
    136 C45         8.2750   -4.7420   -0.4880 c3        1 MOL     -0.256159
    137 H62         5.8180   -5.1100   -0.4510 hn        1 MOL      0.262753
    138 H63         7.3400   -3.4860    1.0520 h1        1 MOL      0.106760
    139 H64         9.3100   -4.4240   -0.3990 hc        1 MOL      0.088363
    140 H65         8.2560   -5.7150    0.0010 hc        1 MOL      0.088363
    141 H66         8.0750   -4.8640   -1.5430 hc        1 MOL      0.088363
    142 N13         7.1070   -1.9450   -1.8670 n         1 MOL     -0.407972
    143 C46         7.2820   -0.6170   -2.4960 c3        1 MOL      0.124640
    144 C47         6.6550    0.5120   -1.6280 c         1 MOL      0.390041
    145 O19         7.2260    1.5830   -1.5620 o         1 MOL     -0.532939
    146 C48         6.6850   -0.5180   -3.9110 c3        1 MOL     -0.326176
    147 H67         6.5700   -2.6270   -2.3780 hn        1 MOL      0.267478
    148 H68         8.3480   -0.3980   -2.5700 h1        1 MOL      0.092420
    149 H69         6.9540   -1.4370   -4.4340 hc        1 MOL      0.091731
    150 H70         5.5960   -0.4820   -3.9320 hc        1 MOL      0.091731
    151 H71         7.1100    0.3850   -4.3480 hc        1 MOL      0.091731
    152 N14         5.5810    0.2770   -0.8960 n         1 MOL     -0.169944
    153 C49         4.8960    1.1620    0.0300 c3        1 MOL     -0.170712
    154 C50         5.5910    1.2630    1.3850 c         1 MOL      0.501843
    155 O20         5.7770    2.3540    1.9550 o         1 MOL     -0.547234
    156 C51         3.4500    0.6690    0.2520 c3        1 MOL      0.078479
    157 C52         2.5360    0.6820   -0.9640 c3        1 MOL      0.002781
    158 C53         1.0980    0.4030   -0.6520 c         1 MOL      0.851913
    159 O21         0.5410   -0.6730   -0.9790 o         1 MOL     -0.814066
    160 O22         0.3960    1.2240   -0.0170 o         1 MOL     -0.814066
    161 H72         5.3260   -0.7020   -0.8930 hn        1 MOL      0.144317
    162 H73         4.9370    2.1480   -0.4410 h1        1 MOL      0.105582
    163 H74         3.0230    1.3450    0.9960 hc        1 MOL      0.009945
    164 H75         3.4630   -0.2520    0.8410 hc        1 MOL      0.009945
    165 H76         2.8960   -0.0910   -1.6470 hc        1 MOL     -0.054990
    166 H77         2.5950    1.6750   -1.3950 hc        1 MOL     -0.054990
    167 N15         6.0890    0.1610    1.9170 n         1 MOL     -0.031598
    168 C54         6.8470    0.1990    3.1770 c3        1 MOL     -0.323654
    169 H78         6.3020    0.7920    3.9120 h1        1 MOL      0.119198
    170 H79         6.9760   -0.8160    3.5550 h1        1 MOL      0.119198
    171 H80         7.8240    0.6480    3.0010 h1        1 MOL      0.119198
    172 H81         5.7760   -0.7570    1.6020 hn        1 MOL      0.100851
    173 Ca1        -1.8580    0.0990   -0.7040 Ca        1 MOL      1.770243
    174 O23        -1.6100   -1.7150   -2.6990 oh        1 MOL     -0.847178
    175 H82        -0.7240   -2.0480   -2.8620 ho        1 MOL      0.421805
    176 H83        -2.1480   -2.1450   -3.3640 ho        1 MOL      0.421805
@<TRIPOS>BOND
     1    1    2 1   
     2    1    4 1   
     3    1    5 1   
     4    1    6 1   
     5    2    3 2   
     6    2    7 1   
     7    7    8 1   
     8    7   15 1   
     9    8    9 1   
    10    8   11 1   
    11    8   16 1   
    12    9   10 2   
    13    9   19 1   
    14   11   12 1   
    15   11   17 1   
    16   11   18 1   
    17   12   13 1   
    18   12   14 1   
    19   19   20 1   
    20   19   28 1   
    21   20   21 1   
    22   20   23 1   
    23   20   29 1   
    24   21   22 2   
    25   21   41 1   
    26   23   24 1   
    27   23   30 1   
    28   23   31 1   
    29   24   25 1   
    30   24   32 1   
    31   24   33 1   
    32   25   26 1   
    33   25   34 1   
    34   25   35 1   
    35   26   27 1   
    36   26   36 1   
    37   26   37 1   
    38   27   38 1   
    39   27   39 1   
    40   27   40 1   
    41   41   42 1   
    42   41   49 1   
    43   42   43 1   
    44   42   45 1   
    45   42   50 1   
    46   43   44 2   
    47   43   53 1   
    48   45   46 1   
    49   45   51 1   
    50   45   52 1   
    51   46   47 1   
    52   46   48 1   
    53   53   54 1   
    54   53   57 1   
    55   54   55 1   
    56   54   58 1   
    57   54   59 1   
    58   55   56 2   
    59   55   60 1   
    60   60   61 1   
    61   60   68 1   
    62   61   62 1   
    63   61   64 1   
    64   61   69 1   
    65   62   63 2   
    66   62   74 1   
    67   64   65 1   
    68   64   70 1   
    69   64   71 1   
    70   65   66 1   
    71   65   67 2   
    72   66   72 1   
    73   66   73 1   
    74   74   75 1   
    75   74   78 1   
    76   75   76 1   
    77   75   79 1   
    78   75   80 1   
    79   76   77 2   
    80   76   81 1   
    81   81   82 1   
    82   81   93 1   
    83   82   83 1   
    84   82   85 1   
    85   82   94 1   
    86   83   84 2   
    87   83  102 1   
    88   85   86 1   
    89   85   95 1   
    90   85   96 1   
    91   86   87 ar  
    92   86   88 ar  
    93   87   89 ar  
    94   87   97 1   
    95   88   90 ar  
    96   88   98 1   
    97   89   91 ar  
    98   89   99 1   
    99   90   91 ar  
   100   90  100 1   
   101   91   92 1   
   102   92  101 1   
   103  102  103 1   
   104  102  110 1   
   105  103  104 1   
   106  103  106 1   
   107  103  111 1   
   108  104  105 2   
   109  104  121 1   
   110  106  107 1   
   111  106  108 1   
   112  106  112 1   
   113  107  109 1   
   114  107  113 1   
   115  107  114 1   
   116  108  115 1   
   117  108  116 1   
   118  108  117 1   
   119  109  118 1   
   120  109  119 1   
   121  109  120 1   
   122  121  122 1   
   123  121  127 1   
   124  122  123 1   
   125  122  125 1   
   126  122  128 1   
   127  123  124 2   
   128  123  132 1   
   129  125  126 1   
   130  125  129 1   
   131  125  130 1   
   132  126  131 1   
   133  132  133 1   
   134  132  137 1   
   135  133  134 1   
   136  133  136 1   
   137  133  138 1   
   138  134  135 2   
   139  134  142 1   
   140  136  139 1   
   141  136  140 1   
   142  136  141 1   
   143  142  143 1   
   144  142  147 1   
   145  143  144 1   
   146  143  146 1   
   147  143  148 1   
   148  144  145 2   
   149  144  152 1   
   150  146  149 1   
   151  146  150 1   
   152  146  151 1   
   153  152  153 1   
   154  152  161 1   
   155  153  154 1   
   156  153  156 1   
   157  153  162 1   
   158  154  155 2   
   159  154  167 1   
   160  156  157 1   
   161  156  163 1   
   162  156  164 1   
   163  157  158 1   
   164  157  165 1   
   165  157  166 1   
   166  158  159 1   
   167  158  160 1   
   168  167  168 1   
   169  167  172 1   
   170  168  169 1   
   171  168  170 1   
   172  168  171 1   
   173  174  175 1   
   174  174  176 1   
@<TRIPOS>SUBSTRUCTURE
     1 MOL         1 TEMP              0 ****  ****    0 ROOT
