@<TRIPOS>MOLECULE
MOL
  186   183     1     0     0
SMALL
resp


@<TRIPOS>ATOM
      1 C1          0.2700   -2.1790    6.3510 c3        1 MOL     -0.341556
      2 C2          0.6700   -2.3270    4.8600 c         1 MOL      0.778893
      3 O1         -0.0950   -2.9180    4.1340 o         1 MOL     -0.592194
      4 H1          1.0980   -2.5000    6.9820 hc        1 MOL      0.075795
      5 H2          0.0350   -1.1360    6.5630 hc        1 MOL      0.075795
      6 H3         -0.6030   -2.7980    6.5560 hc        1 MOL      0.075795
      7 N1          1.7950   -1.7430    4.4680 n         1 MOL     -0.666584
      8 C3          2.2590   -1.6410    3.0800 c3        1 MOL      0.160013
      9 C4          2.5580   -3.0680    2.5460 c         1 MOL      0.520957
     10 O2          3.3930   -3.8290    3.0870 o         1 MOL     -0.616323
     11 C5          3.4750   -0.7250    3.1190 c3        1 MOL     -0.234915
     12 C6          4.1220   -0.6020    1.7150 c         1 MOL      0.819473
     13 O3          5.2490   -0.1170    1.6240 o         1 MOL     -0.719431
     14 O4          3.5690   -1.0250    0.6860 o         1 MOL     -0.719431
     15 H4          2.2810   -1.1780    5.1490 hn        1 MOL      0.324447
     16 H5          1.4240   -1.1850    2.5620 h1        1 MOL     -0.012375
     17 H6          4.2310   -1.0310    3.8420 hc        1 MOL      0.054086
     18 H7          3.0330    0.2380    3.3880 hc        1 MOL      0.054086
     19 N2          1.8490   -3.5270    1.5750 n         1 MOL     -0.062474
     20 C7          2.0200   -4.9510    1.0110 c3        1 MOL      0.052291
     21 C8          3.2310   -5.1020    0.0050 c         1 MOL      0.256679
     22 O5          3.9390   -6.1350   -0.0210 o         1 MOL     -0.546995
     23 C9          0.6370   -5.5090    0.4890 c3        1 MOL      0.096434
     24 C10        -0.5690   -5.4690    1.5230 c3        1 MOL     -0.003872
     25 C11         0.6780   -6.9450   -0.1780 c3        1 MOL     -0.346098
     26 C12        -0.2980   -6.1620    2.8080 c3        1 MOL     -0.070051
     27 H8          1.0510   -2.9990    1.2240 hn        1 MOL      0.198193
     28 H9          2.2030   -5.6580    1.8220 h1        1 MOL      0.046441
     29 H10         0.3260   -4.8880   -0.3590 hc        1 MOL      0.010976
     30 H11        -1.4480   -5.9820    1.1470 hc        1 MOL      0.019414
     31 H12        -0.8270   -4.4220    1.7130 hc        1 MOL      0.019414
     32 H13        -0.2570   -7.5120   -0.1850 hc        1 MOL      0.085380
     33 H14         1.0470   -6.8390   -1.1930 hc        1 MOL      0.085380
     34 H15         1.3710   -7.5790    0.3800 hc        1 MOL      0.085380
     35 H16        -1.1860   -6.1630    3.4500 hc        1 MOL      0.005316
     36 H17         0.0710   -7.1800    2.6750 hc        1 MOL      0.005316
     37 H18         0.4330   -5.6010    3.3920 hc        1 MOL      0.005316
     38 N3          3.3990   -4.1750   -0.9360 n         1 MOL     -0.025879
     39 C13         4.5040   -4.2860   -1.9200 c3        1 MOL      0.049975
     40 C14         5.8190   -3.5700   -1.5580 c         1 MOL      0.326982
     41 O6          6.8460   -3.7490   -2.1850 o         1 MOL     -0.523878
     42 C15         4.0430   -3.7570   -3.3000 c3        1 MOL     -0.545964
     43 C16         3.3010   -2.3840   -3.4100 c         1 MOL      0.831486
     44 O7          2.6370   -2.1220   -4.4400 o         1 MOL     -0.703116
     45 O8          3.4830   -1.5170   -2.5570 o         1 MOL     -0.703116
     46 H19         2.6840   -3.4530   -0.9370 hn        1 MOL      0.100317
     47 H20         4.7740   -5.3090   -2.1880 h1        1 MOL      0.121273
     48 H21         3.5340   -4.5730   -3.8140 hc        1 MOL      0.138838
     49 H22         4.9880   -3.4750   -3.7530 hc        1 MOL      0.138838
     50 N4          5.7680   -2.8080   -0.4660 n         1 MOL      0.024512
     51 C17         6.8990   -2.2890    0.2050 c3        1 MOL     -0.318213
     52 C18         7.6450   -1.1150   -0.5080 c         1 MOL      0.601177
     53 O9          8.8540   -0.9860   -0.4810 o         1 MOL     -0.598847
     54 H23         4.8530   -2.6400   -0.0470 hn        1 MOL      0.110660
     55 H24         7.6640   -3.0640    0.3270 h1        1 MOL      0.112148
     56 H25         6.6510   -1.8950    1.1910 h1        1 MOL      0.112148
     57 N5          6.8990   -0.1700   -1.1500 n         1 MOL     -0.314465
     58 C19         7.3500    1.0900   -1.5660 c3        1 MOL     -0.036846
     59 C20         7.6200    2.0500   -0.3910 c         1 MOL      0.452400
     60 O10         8.3100    3.0340   -0.6060 o         1 MOL     -0.572215
     61 C21         6.5880    1.6350   -2.7280 c3        1 MOL     -0.036652
     62 C22         5.0540    1.7100   -2.4970 c         1 MOL      0.682044
     63 O11         4.3260    2.2380   -3.3210 o         1 MOL     -0.700741
     64 O12         4.5660    1.2530   -1.4490 o         1 MOL     -0.700741
     65 H26         5.9120   -0.3610   -1.1760 hn        1 MOL      0.201389
     66 H27         8.3300    0.9560   -2.0310 h1        1 MOL      0.084563
     67 H28         6.7700    0.9810   -3.5830 hc        1 MOL      0.022405
     68 H29         7.0240    2.5430   -3.1200 hc        1 MOL      0.022405
     69 N6          7.0650    1.8230    0.8070 n         1 MOL     -0.176299
     70 C23         6.9340    2.8610    1.8170 c3        1 MOL     -0.305041
     71 C24         5.7120    3.7970    1.7070 c         1 MOL      0.630572
     72 O13         5.7220    4.8780    2.2790 o         1 MOL     -0.602512
     73 H30         6.5680    0.9620    0.9520 hn        1 MOL      0.219777
     74 H31         7.8320    3.4660    1.7630 h1        1 MOL      0.122243
     75 H32         6.8520    2.3960    2.7960 h1        1 MOL      0.122243
     76 N7          4.6510    3.4090    0.9850 n         1 MOL     -0.400792
     77 C25         3.3550    4.0960    0.9290 c3        1 MOL      0.061186
     78 C26         2.2070    3.1360    1.0340 c         1 MOL      0.618975
     79 O14         2.3380    2.0280    0.6090 o         1 MOL     -0.690628
     80 C27         3.2320    5.0740   -0.2430 c3        1 MOL     -0.100428
     81 C28         4.2720    6.1990   -0.0080 c3        1 MOL     -0.447218
     82 C29         3.9110    7.5030   -0.7450 c         1 MOL      0.746343
     83 N8          4.6110    7.8240   -1.8220 n         1 MOL     -0.824611
     84 O15         3.0190    8.2840   -0.4930 o         1 MOL     -0.590522
     85 H33         4.6990    2.6520    0.3140 hn        1 MOL      0.310003
     86 H34         3.1870    4.5640    1.9000 h1        1 MOL      0.038615
     87 H35         2.2160    5.4850   -0.2570 hc        1 MOL      0.077104
     88 H36         3.3930    4.6250   -1.2250 hc        1 MOL      0.077104
     89 H37         5.2140    5.7670   -0.3410 hc        1 MOL      0.154801
     90 H38         4.2960    6.3970    1.0620 hc        1 MOL      0.154801
     91 H39         5.2540    7.1140   -2.1460 hn        1 MOL      0.359499
     92 H40         4.3810    8.6460   -2.3520 hn        1 MOL      0.359499
     93 N9          1.1020    3.5730    1.6680 n         1 MOL     -0.449600
     94 C30        -0.1940    2.7790    1.7270 c3        1 MOL      0.159756
     95 C31        -1.0770    3.3040    0.6690 c         1 MOL      0.301134
     96 O16        -1.3400    4.5520    0.6220 o         1 MOL     -0.582169
     97 C32        -0.7990    2.7300    3.1590 c3        1 MOL      0.310403
     98 C33        -2.1340    1.9830    3.2790 c3        1 MOL     -0.406773
     99 C34         0.1240    2.0100    4.1280 c3        1 MOL     -0.406773
    100 H41         1.1050    4.5430    1.9590 hn        1 MOL      0.253118
    101 H42         0.1420    1.7820    1.4460 h1        1 MOL      0.090317
    102 H43        -0.9990    3.7560    3.4740 hc        1 MOL     -0.025343
    103 H44        -2.5230    1.9470    4.2960 hc        1 MOL      0.088527
    104 H45        -2.8390    2.4620    2.5920 hc        1 MOL      0.088527
    105 H46        -1.9970    0.9340    2.9890 hc        1 MOL      0.088527
    106 H47         0.6810    1.1760    3.6880 hc        1 MOL      0.088527
    107 H48         0.9490    2.6990    4.2350 hc        1 MOL      0.088527
    108 H49        -0.2750    1.7580    5.1160 hc        1 MOL      0.088527
    109 N10        -1.6350    2.4930   -0.1980 n         1 MOL     -0.098534
    110 C35        -2.8480    2.8660   -1.0050 c3        1 MOL      0.077355
    111 C36        -4.1530    2.3460   -0.4290 c         1 MOL      0.569856
    112 O17        -4.1090    1.6570    0.5420 o         1 MOL     -0.445056
    113 C37        -2.5070    2.5180   -2.5060 c3        1 MOL     -0.269235
    114 C38        -3.0340    1.1730   -2.9540 c         1 MOL      0.519954
    115 N11        -2.4660    0.0850   -2.4240 n         1 MOL     -0.478890
    116 O18        -3.9630    1.1680   -3.7830 o         1 MOL     -0.579589
    117 H50        -1.2820    1.5510   -0.1630 hn        1 MOL      0.128412
    118 H51        -2.9240    3.9560   -1.0440 h1        1 MOL      0.067429
    119 H52        -1.4230    2.4440   -2.6140 hc        1 MOL      0.092015
    120 H53        -2.9270    3.3390   -3.0920 hc        1 MOL      0.092015
    121 H54        -1.6260    0.2670   -1.9000 hn        1 MOL      0.288041
    122 H55        -2.5690   -0.8150   -2.8800 hn        1 MOL      0.288041
    123 N12        -5.3250    2.6780   -1.0160 n         1 MOL     -0.720535
    124 C39        -6.6720    2.2390   -0.4340 c3        1 MOL      0.305194
    125 C40        -6.7400    0.7230   -0.3710 c         1 MOL      0.612429
    126 O19        -7.2970    0.1020    0.5300 o         1 MOL     -0.504641
    127 C41        -7.7910    2.8790   -1.2280 c3        1 MOL     -0.279140
    128 C42        -9.1340    2.6080   -0.6560 ca        1 MOL      0.177186
    129 C43        -9.4670    3.0450    0.6580 ca        1 MOL     -0.310159
    130 C44       -10.0520    1.7880   -1.3330 ca        1 MOL     -0.310159
    131 C45       -10.7210    2.7010    1.2080 ca        1 MOL     -0.110919
    132 C46       -11.2220    1.3980   -0.7730 ca        1 MOL     -0.110919
    133 C47       -11.6280    1.8840    0.5040 ca        1 MOL      0.223017
    134 O20       -12.9030    1.5780    1.0120 oh        1 MOL     -0.515248
    135 H56        -5.3730    3.1550   -1.9050 hn        1 MOL      0.338731
    136 H57        -6.7680    2.5730    0.5980 h1        1 MOL      0.044850
    137 H58        -7.6510    2.5070   -2.2410 hc        1 MOL      0.095474
    138 H59        -7.7300    3.9720   -1.1500 hc        1 MOL      0.095474
    139 H60        -8.8190    3.6780    1.2480 ha        1 MOL      0.172259
    140 H61        -9.7610    1.2530   -2.2240 ha        1 MOL      0.172259
    141 H62       -10.9680    3.0640    2.1870 ha        1 MOL      0.115431
    142 H63       -11.9410    0.8580   -1.3750 ha        1 MOL      0.115431
    143 H64       -13.4500    1.0810    0.3990 ho        1 MOL      0.372754
    144 N13        -6.1360   -0.0180   -1.3410 n         1 MOL     -0.536638
    145 C48        -6.2340   -1.4910   -1.2890 c3        1 MOL      0.000069
    146 C49        -5.5340   -2.1720   -0.1470 c         1 MOL      0.324143
    147 O21        -5.9790   -3.1850    0.4220 o         1 MOL     -0.558892
    148 C50        -5.4920   -2.0000   -2.5630 c3        1 MOL      0.143499
    149 C51        -5.9970   -3.3450   -3.0710 c3        1 MOL     -0.319582
    150 C52        -5.4740   -3.7670   -4.4470 c         1 MOL      0.703809
    151 O22        -4.2400   -3.5850   -4.7250 o         1 MOL     -0.730890
    152 O23        -6.2420   -4.2150   -5.3350 o         1 MOL     -0.730890
    153 H65        -5.7470    0.4140   -2.1610 hn        1 MOL      0.301450
    154 H66        -7.2380   -1.8950   -1.3650 h1        1 MOL      0.094738
    155 H67        -4.4140   -2.0570   -2.4060 hc        1 MOL      0.016078
    156 H68        -5.6840   -1.2930   -3.3710 hc        1 MOL      0.016078
    157 H69        -7.0880   -3.3170   -3.0020 hc        1 MOL      0.046710
    158 H70        -5.7380   -4.1440   -2.3880 hc        1 MOL      0.046710
    159 N14        -4.5010   -1.5990    0.3870 n         1 MOL      0.088950
    160 C53        -3.7920   -2.0540    1.6170 c3        1 MOL     -0.218378
    161 C54        -4.3480   -1.3240    2.8730 c         1 MOL      0.530449
    162 O24        -4.0160   -1.7440    3.9880 o         1 MOL     -0.568181
    163 C55        -2.3140   -1.5660    1.3100 c3        1 MOL      0.054246
    164 C56        -1.7160   -2.0440   -0.0590 c3        1 MOL     -0.058967
    165 C57        -0.4390   -1.2380   -0.2910 c         1 MOL      0.717009
    166 O25         0.6490   -1.7620   -0.1160 o         1 MOL     -0.756710
    167 O26        -0.3500   -0.0200   -0.6000 o         1 MOL     -0.756710
    168 H71        -4.2860   -0.6940    0.0030 hn        1 MOL     -0.001627
    169 H72        -3.7790   -3.1230    1.8220 h1        1 MOL      0.146075
    170 H73        -1.6770   -1.7750    2.1580 hc        1 MOL      0.046023
    171 H74        -2.2910   -0.4870    1.1830 hc        1 MOL      0.046023
    172 H75        -2.3660   -1.9380   -0.9280 hc        1 MOL      0.000587
    173 H76        -1.4270   -3.0940    0.0260 hc        1 MOL      0.000587
    174 N15        -5.2490   -0.3250    2.7620 n         1 MOL     -0.040376
    175 C58        -6.0650    0.1730    3.8480 c3        1 MOL     -0.263278
    176 H77        -5.5540   -0.0000    4.7960 h1        1 MOL      0.091071
    177 H78        -6.2340    1.2420    3.7170 h1        1 MOL      0.091071
    178 H79        -7.0220   -0.3490    3.8530 h1        1 MOL      0.091071
    179 H80        -5.5170    0.0120    1.8570 hn        1 MOL      0.046522
    180 Ca1         2.2290    0.0640   -1.1280 Ca        1 MOL      1.785084
    181 O27         0.7570   -0.2880   -3.4460 oh        1 MOL     -0.873020
    182 H81         0.9920   -0.9540   -4.0930 ho        1 MOL      0.401680
    183 H82         0.0390    0.1930   -3.8620 ho        1 MOL      0.401680
    184 O28         1.9510    2.5270   -2.3080 oh        1 MOL     -0.873020
    185 H83         1.6320    3.4110   -2.4830 ho        1 MOL      0.401680
    186 H84         2.7990    2.4890   -2.7430 ho        1 MOL      0.401680
@<TRIPOS>BOND
     1    1    2 1   
     2    1    4 1   
     3    1    5 1   
     4    1    6 1   
     5    2    3 2   
     6    2    7 1   
     7    7    8 1   
     8    7   15 1   
     9    8    9 1   
    10    8   11 1   
    11    8   16 1   
    12    9   10 2   
    13    9   19 1   
    14   11   12 1   
    15   11   17 1   
    16   11   18 1   
    17   12   13 1   
    18   12   14 1   
    19   19   20 1   
    20   19   27 1   
    21   20   21 1   
    22   20   23 1   
    23   20   28 1   
    24   21   22 2   
    25   21   38 1   
    26   23   24 1   
    27   23   25 1   
    28   23   29 1   
    29   24   26 1   
    30   24   30 1   
    31   24   31 1   
    32   25   32 1   
    33   25   33 1   
    34   25   34 1   
    35   26   35 1   
    36   26   36 1   
    37   26   37 1   
    38   38   39 1   
    39   38   46 1   
    40   39   40 1   
    41   39   42 1   
    42   39   47 1   
    43   40   41 2   
    44   40   50 1   
    45   42   43 1   
    46   42   48 1   
    47   42   49 1   
    48   43   44 1   
    49   43   45 1   
    50   50   51 1   
    51   50   54 1   
    52   51   52 1   
    53   51   55 1   
    54   51   56 1   
    55   52   53 2   
    56   52   57 1   
    57   57   58 1   
    58   57   65 1   
    59   58   59 1   
    60   58   61 1   
    61   58   66 1   
    62   59   60 2   
    63   59   69 1   
    64   61   62 1   
    65   61   67 1   
    66   61   68 1   
    67   62   63 1   
    68   62   64 1   
    69   69   70 1   
    70   69   73 1   
    71   70   71 1   
    72   70   74 1   
    73   70   75 1   
    74   71   72 2   
    75   71   76 1   
    76   76   77 1   
    77   76   85 1   
    78   77   78 1   
    79   77   80 1   
    80   77   86 1   
    81   78   79 2   
    82   78   93 1   
    83   80   81 1   
    84   80   87 1   
    85   80   88 1   
    86   81   82 1   
    87   81   89 1   
    88   81   90 1   
    89   82   83 1   
    90   82   84 2   
    91   83   91 1   
    92   83   92 1   
    93   93   94 1   
    94   93  100 1   
    95   94   95 1   
    96   94   97 1   
    97   94  101 1   
    98   95   96 2   
    99   95  109 1   
   100   97   98 1   
   101   97   99 1   
   102   97  102 1   
   103   98  103 1   
   104   98  104 1   
   105   98  105 1   
   106   99  106 1   
   107   99  107 1   
   108   99  108 1   
   109  109  110 1   
   110  109  117 1   
   111  110  111 1   
   112  110  113 1   
   113  110  118 1   
   114  111  112 2   
   115  111  123 1   
   116  113  114 1   
   117  113  119 1   
   118  113  120 1   
   119  114  115 1   
   120  114  116 2   
   121  115  121 1   
   122  115  122 1   
   123  123  124 1   
   124  123  135 1   
   125  124  125 1   
   126  124  127 1   
   127  124  136 1   
   128  125  126 2   
   129  125  144 1   
   130  127  128 1   
   131  127  137 1   
   132  127  138 1   
   133  128  129 ar  
   134  128  130 ar  
   135  129  131 ar  
   136  129  139 1   
   137  130  132 ar  
   138  130  140 1   
   139  131  133 ar  
   140  131  141 1   
   141  132  133 ar  
   142  132  142 1   
   143  133  134 1   
   144  134  143 1   
   145  144  145 1   
   146  144  153 1   
   147  145  146 1   
   148  145  148 1   
   149  145  154 1   
   150  146  147 2   
   151  146  159 1   
   152  148  149 1   
   153  148  155 1   
   154  148  156 1   
   155  149  150 1   
   156  149  157 1   
   157  149  158 1   
   158  150  151 1   
   159  150  152 1   
   160  159  160 1   
   161  159  168 1   
   162  160  161 1   
   163  160  163 1   
   164  160  169 1   
   165  161  162 2   
   166  161  174 1   
   167  163  164 1   
   168  163  170 1   
   169  163  171 1   
   170  164  165 1   
   171  164  172 1   
   172  164  173 1   
   173  165  166 1   
   174  165  167 1   
   175  174  175 1   
   176  174  179 1   
   177  175  176 1   
   178  175  177 1   
   179  175  178 1   
   180  181  182 1   
   181  181  183 1   
   182  184  185 1   
   183  184  186 1   
@<TRIPOS>SUBSTRUCTURE
     1 MOL         1 TEMP              0 ****  ****    0 ROOT
