@<TRIPOS>MOLECULE
MOL
  189   185     1     0     0
SMALL
resp


@<TRIPOS>ATOM
      1 C1         -0.7780    1.3110    6.5330 c3        1 MOL     -0.339713
      2 C2         -1.0940    1.2730    5.0330 c         1 MOL      0.689488
      3 O1         -0.2790    1.6610    4.1750 o         1 MOL     -0.627979
      4 H1         -1.6350    0.9370    7.0940 hc        1 MOL      0.092895
      5 H2          0.0900    0.6850    6.7380 hc        1 MOL      0.092895
      6 H3         -0.5660    2.3370    6.8350 hc        1 MOL      0.092895
      7 N1         -2.2770    0.8350    4.6160 n         1 MOL     -0.577862
      8 C3         -2.7330    0.8900    3.2900 c3        1 MOL      0.287572
      9 C4         -3.1620    2.2690    2.9170 c         1 MOL      0.393626
     10 O2         -4.3100    2.6800    3.2280 o         1 MOL     -0.544823
     11 C5         -3.8800   -0.1820    3.0460 c3        1 MOL     -0.275124
     12 C6         -4.2210   -0.2520    1.5700 c         1 MOL      0.780334
     13 O3         -5.2680   -0.8380    1.2860 o         1 MOL     -0.662516
     14 O4         -3.6050    0.3690    0.6780 o         1 MOL     -0.662516
     15 H4         -2.7300    0.3290    5.3540 hn        1 MOL      0.313606
     16 H5         -1.9040    0.6540    2.6260 h1        1 MOL     -0.030346
     17 H6         -4.7600    0.1080    3.6220 hc        1 MOL      0.067794
     18 H7         -3.4700   -1.1090    3.4360 hc        1 MOL      0.067794
     19 N2         -2.3920    3.0410    2.1350 n         1 MOL     -0.109963
     20 C7         -2.5840    4.5060    2.0450 c3        1 MOL     -0.109548
     21 C8         -3.7040    4.9860    1.1020 c         1 MOL      0.506788
     22 O5         -3.9870    6.1580    1.0080 o         1 MOL     -0.519215
     23 C9         -1.2190    5.0760    1.6370 c3        1 MOL     -0.362606
     24 C10        -0.9270    4.9750    0.1890 c3        1 MOL      0.435075
     25 C11         0.5270    5.2120   -0.2770 c3        1 MOL     -0.048228
     26 C12         0.5800    5.4880   -1.7850 c3        1 MOL     -0.244098
     27 N3          0.4010    4.3560   -2.7020 n4        1 MOL     -0.143429
     28 H8         -1.5030    2.7190    1.7790 hn        1 MOL      0.264962
     29 H9         -2.8370    4.8680    3.0470 h1        1 MOL      0.114034
     30 H10        -0.5130    4.5770    2.3030 hc        1 MOL      0.103141
     31 H11        -1.2940    6.1500    1.7910 hc        1 MOL      0.103141
     32 H12        -1.6250    5.6730   -0.2790 hc        1 MOL     -0.056128
     33 H13        -1.3200    4.0000   -0.1060 hc        1 MOL     -0.056128
     34 H14         1.1830    4.3460   -0.1510 hc        1 MOL      0.016345
     35 H15         0.9220    6.0270    0.3290 hc        1 MOL      0.016345
     36 H16         1.6030    5.8460   -1.9190 hx        1 MOL      0.121704
     37 H17        -0.1140    6.2810   -2.0460 hx        1 MOL      0.121704
     38 H18         0.9620    3.5310   -2.5520 hn        1 MOL      0.257403
     39 H19        -0.5910    4.1490   -2.6310 hn        1 MOL      0.257403
     40 H20         0.6010    4.6780   -3.6300 hn        1 MOL      0.257403
     41 N4         -4.1620    4.0080    0.2620 n         1 MOL     -0.350270
     42 C13        -5.0600    4.1260   -0.8070 c3        1 MOL      0.156980
     43 C14        -6.3150    3.2190   -0.7300 c         1 MOL      0.329283
     44 O6         -7.3110    3.4640   -1.4470 o         1 MOL     -0.510307
     45 C15        -4.2120    4.2000   -2.1150 c3        1 MOL     -0.308736
     46 C16        -3.0500    3.3290   -2.4530 c         1 MOL      0.921814
     47 O7         -3.0040    2.2140   -1.9610 o         1 MOL     -0.780707
     48 O8         -2.1430    3.7590   -3.2260 o         1 MOL     -0.780707
     49 H21        -3.7150    3.1140    0.3830 hn        1 MOL      0.110071
     50 H22        -5.5150    5.1130   -0.7500 h1        1 MOL      0.077935
     51 H23        -3.9470    5.2460   -2.2690 hc        1 MOL      0.067905
     52 H24        -4.9100    4.0070   -2.9390 hc        1 MOL      0.067905
     53 N5         -6.2470    2.2480    0.1400 n         1 MOL     -0.044996
     54 C17        -7.3130    1.2870    0.4070 c3        1 MOL     -0.313459
     55 C18        -7.5730    0.3990   -0.8250 c         1 MOL      0.515230
     56 O9         -8.7190    0.2780   -1.3230 o         1 MOL     -0.574222
     57 H25        -5.4100    2.2510    0.7020 hn        1 MOL      0.148920
     58 H26        -8.2020    1.8750    0.6520 h1        1 MOL      0.144953
     59 H27        -6.9640    0.6610    1.2310 h1        1 MOL      0.144953
     60 N6         -6.5480   -0.2270   -1.2620 n         1 MOL     -0.122170
     61 C19        -6.5670   -1.3200   -2.3050 c3        1 MOL     -0.022862
     62 C20        -6.4730   -2.7390   -1.7080 c         1 MOL      0.396772
     63 O10        -6.4290   -3.7480   -2.4160 o         1 MOL     -0.494912
     64 C21        -5.5560   -1.1390   -3.4950 c3        1 MOL     -0.174825
     65 C22        -4.1570   -0.9000   -2.9010 c         1 MOL      0.669708
     66 O11        -3.8330   -1.5780   -1.9370 o         1 MOL     -0.718678
     67 O12        -3.2640   -0.2670   -3.5330 o         1 MOL     -0.718678
     68 H28        -5.7420   -0.1750   -0.6540 hn        1 MOL      0.072028
     69 H29        -7.5430   -1.3550   -2.8020 h1        1 MOL      0.107271
     70 H30        -5.8920   -0.2560   -4.0440 hc        1 MOL      0.075648
     71 H31        -5.5480   -1.9960   -4.1640 hc        1 MOL      0.075648
     72 N7         -6.4500   -2.7440   -0.3380 n         1 MOL     -0.266620
     73 C23        -6.4040   -3.9260    0.4660 c3        1 MOL     -0.134745
     74 C24        -5.0430   -4.7020    0.3390 c         1 MOL      0.552903
     75 O13        -4.9830   -5.8420    0.7320 o         1 MOL     -0.554394
     76 H32        -6.4430   -1.8660    0.1440 hn        1 MOL      0.253319
     77 H33        -7.1550   -4.6650    0.1990 h1        1 MOL      0.093218
     78 H34        -6.5170   -3.6130    1.5040 h1        1 MOL      0.093218
     79 N8         -3.9300   -3.9810   -0.0040 n         1 MOL     -0.231321
     80 C25        -2.6000   -4.5230   -0.2060 c3        1 MOL     -0.259389
     81 C26        -1.5320   -3.5260    0.2350 c         1 MOL      0.794579
     82 O14        -1.6180   -2.3450    0.0910 o         1 MOL     -0.691753
     83 C27        -2.5050   -4.9390   -1.6770 c3        1 MOL      0.558327
     84 C28        -3.1950   -6.2070   -2.1400 c3        1 MOL     -0.448331
     85 O15        -2.9140   -4.0270   -2.6080 oh        1 MOL     -0.710458
     86 H35        -4.1380   -3.0210   -0.2430 hn        1 MOL      0.109168
     87 H36        -2.4060   -5.4130    0.3940 h1        1 MOL      0.098932
     88 H37        -1.4510   -5.1430   -1.8590 h1        1 MOL     -0.063328
     89 H38        -3.3550   -3.3520   -2.0940 ho        1 MOL      0.529873
     90 H39        -2.6410   -7.0570   -1.7300 hc        1 MOL      0.112385
     91 H40        -4.2530   -6.2090   -1.8960 hc        1 MOL      0.112385
     92 H41        -3.0470   -6.3120   -3.2160 hc        1 MOL      0.112385
     93 N9         -0.3500   -4.0240    0.6020 n         1 MOL     -0.669106
     94 C29         0.8490   -3.2430    1.0410 c3        1 MOL      0.194347
     95 C30         1.9760   -3.3610   -0.0130 c         1 MOL      0.480198
     96 O16         2.4420   -4.5160   -0.1690 o         1 MOL     -0.557127
     97 C31         1.2560   -3.6820    2.4900 c3        1 MOL     -0.036521
     98 C32         0.2740   -3.0490    3.4710 c3        1 MOL      0.014286
     99 C33         2.6820   -3.3880    2.8690 c3        1 MOL     -0.107647
    100 C34         0.5060   -3.7380    4.8600 c3        1 MOL     -0.141785
    101 H42        -0.2550   -5.0360    0.5970 hn        1 MOL      0.307985
    102 H43         0.6620   -2.1700    1.1280 h1        1 MOL      0.070359
    103 H44         1.3190   -4.7730    2.5550 hc        1 MOL      0.046594
    104 H45        -0.7410   -3.2970    3.1680 hc        1 MOL      0.029872
    105 H46         0.2900   -1.9710    3.5810 hc        1 MOL      0.029872
    106 H47         2.8650   -3.5980    3.9210 hc        1 MOL      0.021921
    107 H48         3.3500   -4.0900    2.3620 hc        1 MOL      0.021921
    108 H49         2.9880   -2.3540    2.7400 hc        1 MOL      0.021921
    109 H50        -0.3420   -3.5170    5.5050 hc        1 MOL      0.035822
    110 H51         0.5410   -4.8340    4.8030 hc        1 MOL      0.035822
    111 H52         1.4040   -3.3250    5.3230 hc        1 MOL      0.035822
    112 N10         2.5270   -2.2990   -0.6210 n         1 MOL     -0.336719
    113 C35         3.8510   -2.3690   -1.4300 c3        1 MOL      0.015209
    114 C36         5.0210   -2.0690   -0.5270 c         1 MOL      0.250561
    115 O17         4.8400   -1.6360    0.5860 o         1 MOL     -0.214620
    116 C37         3.7430   -1.2020   -2.4450 c3        1 MOL      0.160858
    117 C38         2.7440   -1.4510   -3.5530 c3        1 MOL     -0.266472
    118 O18         3.4850    0.0770   -1.8440 oh        1 MOL     -0.581657
    119 H53         2.0610   -1.3960   -0.6010 hn        1 MOL      0.366876
    120 H54         4.0230   -3.3110   -1.9400 h1        1 MOL      0.098550
    121 H55         4.7060   -1.0850   -2.9530 h1        1 MOL      0.033136
    122 H56         2.5620    0.0500   -1.5800 ho        1 MOL      0.308055
    123 H57         2.7540   -0.6750   -4.3230 hc        1 MOL      0.076646
    124 H58         3.0830   -2.3480   -4.0600 hc        1 MOL      0.076646
    125 H59         1.7570   -1.5520   -3.1090 hc        1 MOL      0.076646
    126 N11         6.2940   -2.1720   -0.9970 n         1 MOL     -0.236687
    127 C39         7.5270   -1.8510   -0.3200 c3        1 MOL     -0.120477
    128 C40         7.5640   -0.4440    0.3980 c         1 MOL      0.271080
    129 O19         7.9890   -0.2930    1.5230 o         1 MOL     -0.455856
    130 C41         8.7370   -1.8730   -1.2390 c3        1 MOL      0.175573
    131 C42         9.0100   -3.3210   -1.6560 c3        1 MOL     -0.498296
    132 O20         8.5480   -1.1460   -2.4170 oh        1 MOL     -0.621875
    133 H60         6.4100   -2.6360   -1.8850 hn        1 MOL      0.230546
    134 H61         7.6330   -2.6220    0.4400 h1        1 MOL      0.150824
    135 H62         9.5650   -1.4240   -0.6860 h1        1 MOL      0.096963
    136 H63         9.2460   -1.4020   -3.0250 ho        1 MOL      0.423926
    137 H64         9.1800   -3.9570   -0.7890 hc        1 MOL      0.149712
    138 H65         8.2830   -3.6390   -2.3910 hc        1 MOL      0.149712
    139 H66         9.9210   -3.2830   -2.2520 hc        1 MOL      0.149712
    140 N12         6.8610    0.5130   -0.2470 n         1 MOL      0.048123
    141 C43         6.6770    1.9760    0.0650 c3        1 MOL     -0.040893
    142 C44         5.7880    2.0630    1.3170 c         1 MOL      0.257247
    143 O21         6.0920    2.9190    2.2290 o         1 MOL     -0.463580
    144 C45         5.9530    2.8100   -1.0730 c3        1 MOL     -0.344408
    145 C46         6.5210    2.5480   -2.4980 c3        1 MOL      0.038007
    146 C47         8.0080    2.8300   -2.6710 c3        1 MOL      0.129089
    147 C48         8.3950    2.4420   -4.0370 c3        1 MOL      0.032296
    148 N13         9.8160    2.8150   -4.2610 n4        1 MOL     -0.307557
    149 H67         6.5110    0.3140   -1.1700 hn        1 MOL      0.094555
    150 H68         7.6620    2.3950    0.3100 h1        1 MOL      0.080913
    151 H69         6.0660    3.8730   -0.8490 hc        1 MOL      0.123291
    152 H70         4.8930    2.5400   -1.0470 hc        1 MOL      0.123291
    153 H71         5.9510    3.0470   -3.2810 hc        1 MOL      0.014489
    154 H72         6.2690    1.5070   -2.6650 hc        1 MOL      0.014489
    155 H73         8.6160    2.1600   -2.0530 hc        1 MOL     -0.003073
    156 H74         8.2950    3.8740   -2.5500 hc        1 MOL     -0.003073
    157 H75         7.8170    3.0320   -4.7510 hx        1 MOL      0.066980
    158 H76         8.2880    1.3960   -4.3030 hx        1 MOL      0.066980
    159 H77        10.0330    2.8150   -5.2400 hn        1 MOL      0.301843
    160 H78         9.9770    3.7720   -3.9500 hn        1 MOL      0.301843
    161 H79        10.4620    2.1720   -3.8260 hn        1 MOL      0.301843
    162 N14         4.8010    1.1390    1.3660 n         1 MOL     -0.146748
    163 C49         3.8970    0.9720    2.4970 c3        1 MOL     -0.219822
    164 C50         4.5830    0.1850    3.6380 c         1 MOL      0.441432
    165 O22         4.5470    0.4370    4.8840 o         1 MOL     -0.528114
    166 C51         2.5390    0.3650    2.0840 c3        1 MOL      0.324944
    167 C52         1.7290    1.4190    1.2290 c3        1 MOL     -0.355766
    168 C53         0.5830    0.8080    0.4280 c         1 MOL      0.873783
    169 O23         0.7680   -0.2190   -0.2500 o         1 MOL     -0.810386
    170 O24        -0.5350    1.3580    0.3990 o         1 MOL     -0.810386
    171 H80         4.7620    0.5430    0.5480 hn        1 MOL      0.367349
    172 H81         3.7470    1.9690    2.9140 h1        1 MOL      0.132800
    173 H82         1.8810    0.0820    2.9090 hc        1 MOL     -0.017286
    174 H83         2.7410   -0.4860    1.4420 hc        1 MOL     -0.017286
    175 H84         2.4400    1.7320    0.4780 hc        1 MOL      0.042636
    176 H85         1.4850    2.2960    1.8150 hc        1 MOL      0.042636
    177 N15         5.3530   -0.8880    3.2780 n         1 MOL     -0.018191
    178 C54         6.0120   -1.7930    4.2360 c3        1 MOL     -0.399506
    179 H86         7.0880   -1.6210    4.2160 h1        1 MOL      0.136404
    180 H87         5.6320   -1.5990    5.2400 h1        1 MOL      0.136404
    181 H88         5.8040   -2.8270    3.9630 h1        1 MOL      0.136404
    182 H89         5.1410   -1.2420    2.3530 hn        1 MOL      0.034636
    183 Ca1        -1.8050    0.0160   -1.2970 Ca        1 MOL      1.804735
    184 O25         0.2170    1.0150   -3.1070 oh        1 MOL     -0.853087
    185 H90         0.1580    0.9080   -4.0520 ho        1 MOL      0.411927
    186 H91         1.1520    1.0320   -2.9290 ho        1 MOL      0.411927
    187 O26        -0.8890   -2.0470   -2.9020 oh        1 MOL     -0.853087
    188 H92        -0.7180   -1.8340   -3.8240 ho        1 MOL      0.411927
    189 H93        -1.6440   -2.6420   -2.9380 ho        1 MOL      0.411927
@<TRIPOS>BOND
     1    1    2 1   
     2    1    4 1   
     3    1    5 1   
     4    1    6 1   
     5    2    3 2   
     6    2    7 1   
     7    7    8 1   
     8    7   15 1   
     9    8    9 1   
    10    8   11 1   
    11    8   16 1   
    12    9   10 2   
    13    9   19 1   
    14   11   12 1   
    15   11   17 1   
    16   11   18 1   
    17   12   13 1   
    18   12   14 1   
    19   19   20 1   
    20   19   28 1   
    21   20   21 1   
    22   20   23 1   
    23   20   29 1   
    24   21   22 2   
    25   21   41 1   
    26   23   24 1   
    27   23   30 1   
    28   23   31 1   
    29   24   25 1   
    30   24   32 1   
    31   24   33 1   
    32   25   26 1   
    33   25   34 1   
    34   25   35 1   
    35   26   27 1   
    36   26   36 1   
    37   26   37 1   
    38   27   38 1   
    39   27   39 1   
    40   27   40 1   
    41   41   42 1   
    42   41   49 1   
    43   42   43 1   
    44   42   45 1   
    45   42   50 1   
    46   43   44 2   
    47   43   53 1   
    48   45   46 1   
    49   45   51 1   
    50   45   52 1   
    51   46   47 1   
    52   46   48 1   
    53   53   54 1   
    54   53   57 1   
    55   54   55 1   
    56   54   58 1   
    57   54   59 1   
    58   55   56 2   
    59   55   60 1   
    60   60   61 1   
    61   60   68 1   
    62   61   62 1   
    63   61   64 1   
    64   61   69 1   
    65   62   63 2   
    66   62   72 1   
    67   64   65 1   
    68   64   70 1   
    69   64   71 1   
    70   65   66 1   
    71   65   67 1   
    72   72   73 1   
    73   72   76 1   
    74   73   74 1   
    75   73   77 1   
    76   73   78 1   
    77   74   75 2   
    78   74   79 1   
    79   79   80 1   
    80   79   86 1   
    81   80   81 1   
    82   80   83 1   
    83   80   87 1   
    84   81   82 2   
    85   81   93 1   
    86   83   84 1   
    87   83   85 1   
    88   83   88 1   
    89   84   90 1   
    90   84   91 1   
    91   84   92 1   
    92   85   89 1   
    93   93   94 1   
    94   93  101 1   
    95   94   95 1   
    96   94   97 1   
    97   94  102 1   
    98   95   96 2   
    99   95  112 1   
   100   97   98 1   
   101   97   99 1   
   102   97  103 1   
   103   98  100 1   
   104   98  104 1   
   105   98  105 1   
   106   99  106 1   
   107   99  107 1   
   108   99  108 1   
   109  100  109 1   
   110  100  110 1   
   111  100  111 1   
   112  112  113 1   
   113  112  119 1   
   114  113  114 1   
   115  113  116 1   
   116  113  120 1   
   117  114  115 2   
   118  114  126 1   
   119  116  117 1   
   120  116  118 1   
   121  116  121 1   
   122  117  123 1   
   123  117  124 1   
   124  117  125 1   
   125  118  122 1   
   126  126  127 1   
   127  126  133 1   
   128  127  128 1   
   129  127  130 1   
   130  127  134 1   
   131  128  129 2   
   132  128  140 1   
   133  130  131 1   
   134  130  132 1   
   135  130  135 1   
   136  131  137 1   
   137  131  138 1   
   138  131  139 1   
   139  132  136 1   
   140  140  141 1   
   141  140  149 1   
   142  141  142 1   
   143  141  144 1   
   144  141  150 1   
   145  142  143 2   
   146  142  162 1   
   147  144  145 1   
   148  144  151 1   
   149  144  152 1   
   150  145  146 1   
   151  145  153 1   
   152  145  154 1   
   153  146  147 1   
   154  146  155 1   
   155  146  156 1   
   156  147  148 1   
   157  147  157 1   
   158  147  158 1   
   159  148  159 1   
   160  148  160 1   
   161  148  161 1   
   162  162  163 1   
   163  162  171 1   
   164  163  164 1   
   165  163  166 1   
   166  163  172 1   
   167  164  165 2   
   168  164  177 1   
   169  166  167 1   
   170  166  173 1   
   171  166  174 1   
   172  167  168 1   
   173  167  175 1   
   174  167  176 1   
   175  168  169 1   
   176  168  170 1   
   177  177  178 1   
   178  177  182 1   
   179  178  179 1   
   180  178  180 1   
   181  178  181 1   
   182  184  185 1   
   183  184  186 1   
   184  187  188 1   
   185  187  189 1   
@<TRIPOS>SUBSTRUCTURE
     1 MOL         1 TEMP              0 ****  ****    0 ROOT
