@<TRIPOS>MOLECULE
MOL
  175   173     1     0     0
SMALL
resp


@<TRIPOS>ATOM
      1 C1          0.4430    4.5040    4.9470 c3        1 MOL     -0.393469
      2 C2         -0.2890    4.5330    3.5860 c         1 MOL      0.626254
      3 O1          0.3280    4.7370    2.5450 o         1 MOL     -0.511776
      4 H1          1.0920    3.6290    4.9900 hc        1 MOL      0.092177
      5 H2          1.0440    5.4070    5.0560 hc        1 MOL      0.092177
      6 H3         -0.2880    4.4540    5.7530 hc        1 MOL      0.092177
      7 N1         -1.5750    4.2070    3.5860 n         1 MOL     -0.601889
      8 C3         -2.2800    3.8450    2.3600 c3        1 MOL      0.192628
      9 C4         -2.5150    4.9640    1.3220 c         1 MOL      0.513661
     10 O2         -2.4660    6.1520    1.5800 o         1 MOL     -0.589523
     11 C5         -3.6710    3.2720    2.7740 c3        1 MOL     -0.238996
     12 C6         -4.2150    2.2470    1.7980 c         1 MOL      0.872955
     13 O3         -5.3170    1.7270    2.0940 o         1 MOL     -0.721354
     14 O4         -3.7870    1.9910    0.6110 o         1 MOL     -0.721354
     15 H4         -2.0650    4.2670    4.4730 hn        1 MOL      0.316967
     16 H5         -1.6450    3.0640    1.9350 h1        1 MOL      0.189688
     17 H6         -4.3840    4.0990    2.7550 hc        1 MOL      0.043642
     18 H7         -3.6860    2.8270    3.7650 hc        1 MOL      0.043642
     19 N2         -2.7620    4.5680    0.1440 n         1 MOL     -0.511525
     20 C7         -3.0340    5.4640   -1.0450 c3        1 MOL      0.352790
     21 C8         -3.9780    4.8640   -2.1070 c         1 MOL      0.403471
     22 O5         -4.2730    5.6030   -3.0430 o         1 MOL     -0.563530
     23 C9         -1.7260    5.8210   -1.7630 c3        1 MOL     -0.328437
     24 H8         -2.8620    3.5700   -0.0070 hn        1 MOL      0.328165
     25 H9         -3.5970    6.3630   -0.7850 h1        1 MOL     -0.006666
     26 H10        -1.8560    6.6560   -2.4450 hc        1 MOL      0.086239
     27 H11        -0.9730    6.1270   -1.0270 hc        1 MOL      0.086239
     28 H12        -1.3950    4.9520   -2.3350 hc        1 MOL      0.086239
     29 N3         -4.3850    3.6380   -1.9520 n         1 MOL     -0.175806
     30 C10        -5.2570    2.9060   -2.9660 c3        1 MOL     -0.033434
     31 C11        -6.3450    2.0260   -2.3750 c         1 MOL      0.394256
     32 O6         -7.3120    1.7350   -3.1190 o         1 MOL     -0.560231
     33 C12        -4.3230    2.0890   -3.8540 c3        1 MOL     -0.026453
     34 C13        -3.3680    1.1660   -3.0760 c         1 MOL      0.559504
     35 O7         -3.8210    0.4360   -2.1560 o         1 MOL     -0.650160
     36 O8         -2.2490    0.8990   -3.5230 o         1 MOL     -0.650160
     37 H13        -4.2770    3.1060   -1.0950 hn        1 MOL     -0.050022
     38 H14        -5.7760    3.6490   -3.5650 h1        1 MOL      0.087827
     39 H15        -3.7820    2.7570   -4.5160 hc        1 MOL      0.030740
     40 H16        -4.8800    1.5060   -4.5960 hc        1 MOL      0.030740
     41 N4         -6.1680    1.4890   -1.1380 n         1 MOL     -0.167215
     42 C14        -7.2200    0.7460   -0.3540 c3        1 MOL     -0.356445
     43 C15        -7.2970   -0.7520   -0.8720 c         1 MOL      0.644243
     44 O9         -8.1920   -1.4680   -0.5140 o         1 MOL     -0.624486
     45 H17        -5.3140    1.7840   -0.6960 hn        1 MOL      0.276930
     46 H18        -8.1890    1.2150   -0.5110 h1        1 MOL      0.148468
     47 H19        -6.9570    0.7820    0.7100 h1        1 MOL      0.148468
     48 N5         -6.2670   -1.1720   -1.6220 n         1 MOL     -0.408384
     49 C16        -6.0920   -2.5300   -2.0980 c3        1 MOL      0.080501
     50 C17        -5.9730   -3.6440   -0.9520 c         1 MOL      0.374939
     51 O10        -5.6630   -4.7660   -1.2300 o         1 MOL     -0.477449
     52 C18        -4.9650   -2.5980   -3.1280 c3        1 MOL     -0.282778
     53 C19        -3.5490   -2.5060   -2.5560 c         1 MOL      0.751421
     54 N6         -2.5110   -2.9440   -3.3090 n         1 MOL     -0.612477
     55 O11        -3.3150   -2.1250   -1.3920 o         1 MOL     -0.750331
     56 H20        -5.5830   -0.4760   -1.9030 hn        1 MOL      0.321790
     57 H21        -7.0010   -2.7010   -2.6810 h1        1 MOL      0.082888
     58 H22        -5.1000   -1.8320   -3.8760 hc        1 MOL      0.075696
     59 H23        -5.0110   -3.6130   -3.5350 hc        1 MOL      0.075696
     60 H24        -2.7700   -2.9940   -4.2840 hn        1 MOL      0.302476
     61 H25        -1.5850   -2.9330   -2.9020 hn        1 MOL      0.302476
     62 N7         -6.2270   -3.3510    0.2810 n         1 MOL     -0.239440
     63 C20        -6.1090   -4.2680    1.3860 c3        1 MOL     -0.072469
     64 C21        -4.7690   -4.5720    1.9850 c         1 MOL      0.509189
     65 O12        -4.6520   -5.3990    2.8930 o         1 MOL     -0.585699
     66 H26        -6.3270   -2.3620    0.4090 hn        1 MOL      0.261747
     67 H27        -6.5960   -5.2240    1.2040 h1        1 MOL      0.082233
     68 H28        -6.7090   -3.8790    2.2120 h1        1 MOL      0.082233
     69 N8         -3.7200   -3.9360    1.4750 n         1 MOL     -0.249344
     70 C22        -2.2990   -4.3340    1.6290 c3        1 MOL     -0.008900
     71 C23        -1.2700   -3.1800    1.6440 c         1 MOL      0.376620
     72 O13        -1.4490   -2.1210    1.0150 o         1 MOL     -0.379318
     73 C24        -1.8820   -5.4030    0.6620 c3        1 MOL      0.403365
     74 C25        -2.4710   -6.7800    0.7660 c3        1 MOL     -0.332598
     75 O14        -2.2790   -4.9390   -0.6630 oh        1 MOL     -0.580099
     76 H29        -3.8920   -3.2660    0.7350 hn        1 MOL      0.121531
     77 H30        -2.2560   -4.8050    2.6070 h1        1 MOL      0.050358
     78 H31        -0.8180   -5.5650    0.8370 h1        1 MOL     -0.026354
     79 H32        -1.6950   -4.2130   -0.8710 ho        1 MOL      0.361979
     80 H33        -3.5680   -6.7740    0.7520 hc        1 MOL      0.089533
     81 H34        -2.0700   -7.3720   -0.0510 hc        1 MOL      0.089533
     82 H35        -2.2050   -7.3370    1.6670 hc        1 MOL      0.089533
     83 N9         -0.2720   -3.2710    2.5450 n         1 MOL     -0.443731
     84 C26         0.9100   -2.4400    2.4510 c3        1 MOL     -0.015240
     85 C27         1.8000   -2.8150    1.2330 c         1 MOL      0.538395
     86 O15         2.3180   -3.9420    1.1290 o         1 MOL     -0.596213
     87 C28         1.7080   -2.3910    3.7290 c3        1 MOL      0.065885
     88 C29         0.8310   -1.6810    4.8530 c3        1 MOL      0.036975
     89 C30         2.9080   -1.3790    3.6620 c3        1 MOL     -0.114878
     90 C31         1.5210   -1.4090    6.2230 c3        1 MOL     -0.335754
     91 H36        -0.2130   -4.1420    3.0640 hn        1 MOL      0.291696
     92 H37         0.5940   -1.4020    2.3220 h1        1 MOL      0.090358
     93 H38         2.0340   -3.3970    4.0080 hc        1 MOL      0.015340
     94 H39        -0.0360   -2.2960    5.0900 hc        1 MOL      0.010282
     95 H40         0.5300   -0.7040    4.4880 hc        1 MOL      0.010282
     96 H41         3.6180   -1.8050    2.9460 hc        1 MOL      0.024721
     97 H42         2.5590   -0.3780    3.4120 hc        1 MOL      0.024721
     98 H43         3.4570   -1.3030    4.6060 hc        1 MOL      0.024721
     99 H44         2.2510   -0.5960    6.2030 hc        1 MOL      0.081420
    100 H45         0.7780   -0.8620    6.8090 hc        1 MOL      0.081420
    101 H46         2.0440   -2.1780    6.7960 hc        1 MOL      0.081420
    102 N10         1.9550   -1.8170    0.3630 n         1 MOL     -0.050841
    103 C32         2.8530   -1.8990   -0.7940 c3        1 MOL      0.015565
    104 C33         4.2860   -1.4670   -0.5180 c         1 MOL      0.423204
    105 O16         4.5510   -0.8530    0.4910 o         1 MOL     -0.329203
    106 C34         2.1910   -1.1360   -1.9170 c3        1 MOL     -0.356127
    107 C35         0.6690   -1.3480   -2.1510 c         1 MOL      0.772921
    108 O17        -0.1920   -0.5720   -1.6570 o         1 MOL     -0.671774
    109 O18         0.2530   -2.3850   -2.7450 o         1 MOL     -0.671774
    110 H47         1.2770   -1.0590    0.3830 hn        1 MOL     -0.037951
    111 H48         2.8290   -2.9170   -1.1900 h1        1 MOL      0.066030
    112 H49         2.7150   -1.3410   -2.8430 hc        1 MOL      0.104864
    113 H50         2.3790   -0.0700   -1.7380 hc        1 MOL      0.104864
    114 N11         5.2630   -1.8160   -1.4200 n         1 MOL     -0.629194
    115 C36         6.6880   -1.5220   -1.1430 c3        1 MOL      0.300819
    116 C37         6.8050    0.0020   -1.1490 c         1 MOL      0.293310
    117 O19         7.3790    0.4330   -0.1410 o         1 MOL     -0.520529
    118 C38         7.5890   -2.1550   -2.1990 c3        1 MOL     -0.334653
    119 C39         9.0550   -1.7860   -2.0470 ca        1 MOL      0.226310
    120 C40         9.6630   -2.1640   -0.8470 ca        1 MOL     -0.199760
    121 C41         9.8280   -1.4100   -3.1570 ca        1 MOL     -0.199760
    122 C42        11.0520   -1.9920   -0.7200 ca        1 MOL     -0.109126
    123 C43        11.2140   -1.2600   -3.0960 ca        1 MOL     -0.109126
    124 C44        11.7960   -1.5740   -1.8320 ca        1 MOL     -0.121081
    125 H51         5.0430   -2.3040   -2.2780 hn        1 MOL      0.353657
    126 H52         7.1110   -1.7760   -0.1720 h1        1 MOL      0.104395
    127 H53         7.2950   -1.8800   -3.2100 hc        1 MOL      0.087066
    128 H54         7.5050   -3.2390   -2.2020 hc        1 MOL      0.087066
    129 H55         9.0860   -2.5040    0.0040 ha        1 MOL      0.123108
    130 H56         9.2880   -1.2080   -4.0730 ha        1 MOL      0.123108
    131 H57        11.5310   -2.2150    0.2200 ha        1 MOL      0.120823
    132 H58        11.7170   -0.8730   -3.9610 ha        1 MOL      0.120823
    133 H59        12.8760   -1.4870   -1.8200 ha        1 MOL      0.090274
    134 N12         6.2380    0.8360   -1.9970 n         1 MOL     -0.074183
    135 C45         6.1260    2.3020   -1.8330 c3        1 MOL     -0.012941
    136 C46         5.4620    2.8650   -0.5340 c         1 MOL      0.308746
    137 O20         5.6670    4.0640   -0.2550 o         1 MOL     -0.508509
    138 C47         5.2450    2.7020   -3.0320 c3        1 MOL     -0.028145
    139 C48         5.5870    1.6450   -4.1330 c3        1 MOL     -0.131768
    140 C49         5.5910    0.4110   -3.2840 c3        1 MOL      0.088047
    141 H60         7.1460    2.6760   -1.9590 h1        1 MOL      0.079861
    142 H61         4.2470    2.5210   -2.6300 hc        1 MOL      0.050509
    143 H62         5.3480    3.7390   -3.3340 hc        1 MOL      0.050509
    144 H63         4.8470    1.5320   -4.9200 hc        1 MOL      0.047969
    145 H64         6.5990    1.8950   -4.4490 hc        1 MOL      0.047969
    146 H65         4.6070   -0.0280   -3.1390 h1        1 MOL      0.005932
    147 H66         6.2060   -0.3130   -3.8210 h1        1 MOL      0.005932
    148 N13         4.7930    1.9960    0.2440 n         1 MOL     -0.073824
    149 C50         4.0660    2.3900    1.5770 c3        1 MOL     -0.015908
    150 C51         4.9050    1.7860    2.7530 c         1 MOL      0.414597
    151 O21         5.0710    2.3970    3.7770 o         1 MOL     -0.543104
    152 C52         2.5910    1.7890    1.5710 c3        1 MOL     -0.196626
    153 C53         1.7200    2.4060    0.4270 c3        1 MOL     -0.040633
    154 C54         0.3900    1.7160    0.3590 c         1 MOL      0.666173
    155 O22         0.2120    0.6220    0.9010 o         1 MOL     -0.770493
    156 O23        -0.5460    2.2980   -0.2120 o         1 MOL     -0.770493
    157 H67         4.8360    1.0200    0.0240 hn        1 MOL      0.078929
    158 H68         3.9660    3.4520    1.7910 h1        1 MOL      0.107549
    159 H69         2.1240    2.0000    2.5420 hc        1 MOL      0.135517
    160 H70         2.6660    0.7160    1.4150 hc        1 MOL      0.135517
    161 H71         2.2460    2.2270   -0.5130 hc        1 MOL      0.048152
    162 H72         1.5270    3.4730    0.5050 hc        1 MOL      0.048152
    163 N14         5.7400    0.6970    2.6210 n         1 MOL     -0.091225
    164 C55         6.6930    0.1620    3.6430 c3        1 MOL     -0.211222
    165 H73         7.3770   -0.5420    3.1690 h1        1 MOL      0.084997
    166 H74         7.2620    0.9850    4.0770 h1        1 MOL      0.084997
    167 H75         6.1350   -0.3490    4.4280 h1        1 MOL      0.084997
    168 H76         5.5880    0.1470    1.7840 hn        1 MOL      0.078667
    169 Ca1        -2.1610    0.1010   -0.2990 Ca        1 MOL      1.795296
    170 O24        -4.4490   -0.6480    1.1050 oh        1 MOL     -0.879160
    171 H77        -4.6780    0.2570    1.3110 ho        1 MOL      0.397949
    172 H78        -4.9110   -1.1690    1.7710 ho        1 MOL      0.397949
    173 O25        -1.7100    0.8620    2.8560 oh        1 MOL     -0.879160
    174 H79        -0.8170    0.5310    2.7410 ho        1 MOL      0.397949
    175 H80        -1.7510    1.1200    3.7770 ho        1 MOL      0.397949
@<TRIPOS>BOND
     1    1    2 1   
     2    1    4 1   
     3    1    5 1   
     4    1    6 1   
     5    2    3 2   
     6    2    7 1   
     7    7    8 1   
     8    7   15 1   
     9    8    9 1   
    10    8   11 1   
    11    8   16 1   
    12    9   10 2   
    13    9   19 1   
    14   11   12 1   
    15   11   17 1   
    16   11   18 1   
    17   12   13 1   
    18   12   14 1   
    19   19   20 1   
    20   19   24 1   
    21   20   21 1   
    22   20   23 1   
    23   20   25 1   
    24   21   22 2   
    25   21   29 1   
    26   23   26 1   
    27   23   27 1   
    28   23   28 1   
    29   29   30 1   
    30   29   37 1   
    31   30   31 1   
    32   30   33 1   
    33   30   38 1   
    34   31   32 2   
    35   31   41 1   
    36   33   34 1   
    37   33   39 1   
    38   33   40 1   
    39   34   35 1   
    40   34   36 1   
    41   41   42 1   
    42   41   45 1   
    43   42   43 1   
    44   42   46 1   
    45   42   47 1   
    46   43   44 2   
    47   43   48 1   
    48   48   49 1   
    49   48   56 1   
    50   49   50 1   
    51   49   52 1   
    52   49   57 1   
    53   50   51 2   
    54   50   62 1   
    55   52   53 1   
    56   52   58 1   
    57   52   59 1   
    58   53   54 1   
    59   53   55 2   
    60   54   60 1   
    61   54   61 1   
    62   62   63 1   
    63   62   66 1   
    64   63   64 1   
    65   63   67 1   
    66   63   68 1   
    67   64   65 2   
    68   64   69 1   
    69   69   70 1   
    70   69   76 1   
    71   70   71 1   
    72   70   73 1   
    73   70   77 1   
    74   71   72 2   
    75   71   83 1   
    76   73   74 1   
    77   73   75 1   
    78   73   78 1   
    79   74   80 1   
    80   74   81 1   
    81   74   82 1   
    82   75   79 1   
    83   83   84 1   
    84   83   91 1   
    85   84   85 1   
    86   84   87 1   
    87   84   92 1   
    88   85   86 2   
    89   85  102 1   
    90   87   88 1   
    91   87   89 1   
    92   87   93 1   
    93   88   90 1   
    94   88   94 1   
    95   88   95 1   
    96   89   96 1   
    97   89   97 1   
    98   89   98 1   
    99   90   99 1   
   100   90  100 1   
   101   90  101 1   
   102  102  103 1   
   103  102  110 1   
   104  103  104 1   
   105  103  106 1   
   106  103  111 1   
   107  104  105 2   
   108  104  114 1   
   109  106  107 1   
   110  106  112 1   
   111  106  113 1   
   112  107  108 1   
   113  107  109 1   
   114  114  115 1   
   115  114  125 1   
   116  115  116 1   
   117  115  118 1   
   118  115  126 1   
   119  116  117 2   
   120  116  134 1   
   121  118  119 1   
   122  118  127 1   
   123  118  128 1   
   124  119  120 ar  
   125  119  121 ar  
   126  120  122 ar  
   127  120  129 1   
   128  121  123 ar  
   129  121  130 1   
   130  122  124 ar  
   131  122  131 1   
   132  123  124 ar  
   133  123  132 1   
   134  124  133 1   
   135  134  135 1   
   136  134  140 1   
   137  135  136 1   
   138  135  138 1   
   139  135  141 1   
   140  136  137 2   
   141  136  148 1   
   142  138  139 1   
   143  138  142 1   
   144  138  143 1   
   145  139  140 1   
   146  139  144 1   
   147  139  145 1   
   148  140  146 1   
   149  140  147 1   
   150  148  149 1   
   151  148  157 1   
   152  149  150 1   
   153  149  152 1   
   154  149  158 1   
   155  150  151 2   
   156  150  163 1   
   157  152  153 1   
   158  152  159 1   
   159  152  160 1   
   160  153  154 1   
   161  153  161 1   
   162  153  162 1   
   163  154  155 1   
   164  154  156 1   
   165  163  164 1   
   166  163  168 1   
   167  164  165 1   
   168  164  166 1   
   169  164  167 1   
   170  170  171 1   
   171  170  172 1   
   172  173  174 1   
   173  173  175 1   
@<TRIPOS>SUBSTRUCTURE
     1 MOL         1 TEMP              0 ****  ****    0 ROOT
