@<TRIPOS>MOLECULE
MOL
  189   185     1     0     0
SMALL
resp


@<TRIPOS>ATOM
      1 C1         -1.0020    1.8030    6.6430 c3        1 MOL     -0.363493
      2 C2         -1.1570    1.5630    5.1110 c         1 MOL      0.823760
      3 O1         -0.2480    1.8880    4.3610 o         1 MOL     -0.674547
      4 H1         -1.3360    0.9190    7.1850 hc        1 MOL      0.086891
      5 H2          0.0450    1.9980    6.8770 hc        1 MOL      0.086891
      6 H3         -1.6070    2.6600    6.9400 hc        1 MOL      0.086891
      7 N1         -2.2260    0.9940    4.6810 n         1 MOL     -0.673142
      8 C3         -2.6480    1.0670    3.2340 c3        1 MOL      0.152044
      9 C4         -2.7880    2.5590    2.8980 c         1 MOL      0.449752
     10 O2         -3.7500    3.2250    3.3500 o         1 MOL     -0.546995
     11 C5         -3.9420    0.2390    3.1010 c3        1 MOL     -0.129242
     12 C6         -4.3180    0.0710    1.6100 c         1 MOL      0.819690
     13 O3         -5.4640   -0.3640    1.2930 o         1 MOL     -0.725171
     14 O4         -3.4450    0.3680    0.7920 o         1 MOL     -0.725171
     15 H4         -2.9190    0.7910    5.3880 hn        1 MOL      0.334580
     16 H5         -1.9250    0.4960    2.6400 h1        1 MOL      0.020381
     17 H6         -4.8090    0.7610    3.4910 hc        1 MOL      0.030700
     18 H7         -3.9400   -0.7570    3.5320 hc        1 MOL      0.030700
     19 N2         -1.9390    3.0650    2.0500 n         1 MOL     -0.064495
     20 C7         -1.7420    4.5130    1.6780 c3        1 MOL     -0.188770
     21 C8         -2.7360    5.0350    0.5790 c         1 MOL      0.480557
     22 O5         -3.2200    6.1980    0.6760 o         1 MOL     -0.556325
     23 C9         -0.2670    4.8320    1.2490 c3        1 MOL      0.095463
     24 C10         0.0610    6.2720    1.0350 c3        1 MOL     -0.159097
     25 C11         1.5330    6.5660    0.7990 c3        1 MOL      0.064111
     26 C12         2.2750    5.7580   -0.2690 c3        1 MOL      0.099597
     27 N3          3.6850    6.1880   -0.3000 n4        1 MOL     -0.434561
     28 H8         -1.3220    2.3990    1.6040 hn        1 MOL      0.142039
     29 H9         -2.0220    5.0220    2.6090 h1        1 MOL      0.116268
     30 H10        -0.0180    4.3340    0.3080 hc        1 MOL      0.031021
     31 H11         0.3780    4.3560    1.9880 hc        1 MOL      0.031021
     32 H12        -0.2270    6.8300    1.9250 hc        1 MOL      0.062128
     33 H13        -0.6430    6.6120    0.2680 hc        1 MOL      0.062128
     34 H14         2.0850    6.5250    1.7450 hc        1 MOL      0.004980
     35 H15         1.6600    7.5800    0.4370 hc        1 MOL      0.004980
     36 H16         1.7400    5.8900   -1.2060 hx        1 MOL      0.053320
     37 H17         2.1800    4.6880   -0.0430 hx        1 MOL      0.053320
     38 H18         4.1430    6.0520    0.5910 hn        1 MOL      0.340711
     39 H19         4.1380    5.8240   -1.1250 hn        1 MOL      0.340711
     40 H20         3.6800    7.1370   -0.6480 hn        1 MOL      0.340711
     41 N4         -3.0670    4.1730   -0.3840 n         1 MOL     -0.095926
     42 C13        -3.9160    4.4890   -1.5340 c3        1 MOL     -0.134759
     43 C14        -5.3690    3.8440   -1.4700 c         1 MOL      0.453859
     44 O6         -6.2420    4.4220   -2.1870 o         1 MOL     -0.525924
     45 C15        -3.2150    4.2550   -2.9020 c3        1 MOL     -0.168728
     46 C16        -2.6160    2.8790   -3.0740 c         1 MOL      0.811430
     47 O7         -2.8470    1.8840   -2.3520 o         1 MOL     -0.730565
     48 O8         -1.8440    2.7380   -4.0180 o         1 MOL     -0.730565
     49 H21        -2.7850    3.2210   -0.2030 hn        1 MOL     -0.032809
     50 H22        -4.0940    5.5630   -1.6060 h1        1 MOL      0.119651
     51 H23        -2.4160    4.9650   -3.0700 hc        1 MOL      0.061996
     52 H24        -3.9440    4.4350   -3.6920 hc        1 MOL      0.061996
     53 N5         -5.6780    2.9120   -0.5900 n         1 MOL     -0.107469
     54 C17        -6.9410    2.3960   -0.3400 c3        1 MOL     -0.246262
     55 C18        -7.3490    1.3600   -1.3870 c         1 MOL      0.699104
     56 O9         -8.3740    1.5300   -2.0820 o         1 MOL     -0.587693
     57 H25        -4.9430    2.6620    0.0570 hn        1 MOL      0.224625
     58 H26        -7.7130    3.1700   -0.3240 h1        1 MOL      0.101623
     59 H27        -6.9670    1.9240    0.6380 h1        1 MOL      0.101623
     60 N6         -6.6630    0.2210   -1.4820 n         1 MOL     -0.483435
     61 C19        -6.9300   -0.9220   -2.4450 c3        1 MOL      0.174131
     62 C20        -6.9020   -2.2250   -1.6840 c         1 MOL      0.473794
     63 O10        -7.1300   -3.2910   -2.3120 o         1 MOL     -0.565803
     64 C21        -5.7850   -0.9540   -3.5000 c3        1 MOL     -0.335514
     65 C22        -4.4090   -1.0720   -2.8480 c         1 MOL      0.881017
     66 O11        -4.2110   -1.4380   -1.6800 o         1 MOL     -0.756811
     67 O12        -3.3960   -0.9290   -3.5890 o         1 MOL     -0.756811
     68 H28        -6.0520    0.0430   -0.6910 hn        1 MOL      0.083022
     69 H29        -7.9290   -0.8580   -2.8910 h1        1 MOL      0.081817
     70 H30        -5.9220   -0.0850   -4.1370 hc        1 MOL      0.102752
     71 H31        -5.9100   -1.8270   -4.1410 hc        1 MOL      0.102752
     72 N7         -6.7940   -2.2320   -0.3350 n         1 MOL     -0.433790
     73 C23        -6.9030   -3.4710    0.4560 c3        1 MOL     -0.040874
     74 C24        -5.5900   -4.3440    0.5550 c         1 MOL      0.470847
     75 O13        -5.7440   -5.4890    0.9880 o         1 MOL     -0.563341
     76 H32        -6.5400   -1.3970    0.1620 hn        1 MOL      0.364095
     77 H33        -7.6960   -4.0460   -0.0150 h1        1 MOL      0.091505
     78 H34        -7.3120   -3.3630    1.4590 h1        1 MOL      0.091505
     79 N8         -4.4390   -3.9110    0.0750 n         1 MOL     -0.267803
     80 C25        -3.1380   -4.6250    0.2610 c3        1 MOL     -0.053529
     81 C26        -1.9920   -3.6940    0.6630 c         1 MOL      0.743593
     82 O14        -1.9880   -2.4890    0.3300 o         1 MOL     -0.711261
     83 C27        -2.7400   -5.5440   -0.8770 c3        1 MOL      0.366404
     84 C28        -3.6510   -6.7170   -1.0510 c3        1 MOL     -0.605848
     85 O15        -2.5590   -4.7910   -2.0560 oh        1 MOL     -0.600191
     86 H35        -4.3760   -2.9740   -0.2890 hn        1 MOL      0.257680
     87 H36        -3.2810   -5.2570    1.1370 h1        1 MOL      0.047960
     88 H37        -1.7730   -5.9910   -0.6400 h1        1 MOL      0.039411
     89 H38        -3.4090   -4.8240   -2.4910 ho        1 MOL      0.400530
     90 H39        -4.5920   -6.4700   -1.5380 hc        1 MOL      0.169827
     91 H40        -3.1480   -7.4910   -1.6230 hc        1 MOL      0.169827
     92 H41        -3.9640   -7.0750   -0.0600 hc        1 MOL      0.169827
     93 N9         -0.8560   -4.1040    1.2530 n         1 MOL     -0.634697
     94 C29         0.3000   -3.2650    1.3880 c3        1 MOL      0.268970
     95 C30         1.3230   -3.7220    0.3930 c         1 MOL      0.634029
     96 O16         1.5950   -4.8310    0.1700 o         1 MOL     -0.584736
     97 C31         0.7080   -3.3590    2.8540 c3        1 MOL     -0.013328
     98 C32        -0.2290   -2.5220    3.7580 c3        1 MOL      0.127908
     99 C33         2.0770   -2.7490    3.0550 c3        1 MOL     -0.068280
    100 C34         0.1080   -2.4000    5.3050 c3        1 MOL     -0.293314
    101 H42        -0.6870   -5.0930    1.2610 hn        1 MOL      0.265785
    102 H43         0.1020   -2.2260    1.0960 h1        1 MOL     -0.004058
    103 H44         0.8420   -4.3980    3.1560 hc        1 MOL      0.024886
    104 H45        -1.1750   -3.0520    3.6460 hc        1 MOL     -0.008152
    105 H46        -0.3880   -1.5180    3.3760 hc        1 MOL     -0.008152
    106 H47         2.4200   -2.9440    4.0620 hc        1 MOL     -0.011449
    107 H48         2.7590   -3.3070    2.4040 hc        1 MOL     -0.011449
    108 H49         2.0890   -1.6660    2.9360 hc        1 MOL     -0.011449
    109 H50        -0.6880   -1.9930    5.9200 hc        1 MOL      0.073709
    110 H51         0.3710   -3.3980    5.6600 hc        1 MOL      0.073709
    111 H52         0.9500   -1.7180    5.4020 hc        1 MOL      0.073709
    112 N10         1.8870   -2.6560   -0.2160 n         1 MOL     -0.139174
    113 C35         3.0830   -2.7640   -1.1270 c3        1 MOL     -0.232119
    114 C36         4.3590   -2.8140   -0.3240 c         1 MOL      0.542039
    115 O17         4.4610   -2.4600    0.8410 o         1 MOL     -0.417362
    116 C37         3.1540   -1.5630   -2.0540 c3        1 MOL      0.475823
    117 C38         1.9310   -1.4560   -2.9250 c3        1 MOL     -0.426481
    118 O18         3.1590   -0.4090   -1.2460 oh        1 MOL     -0.526944
    119 H53         1.5370   -1.7570    0.0730 hn        1 MOL     -0.019379
    120 H54         3.0170   -3.7120   -1.6510 h1        1 MOL      0.105113
    121 H55         3.9870   -1.7000   -2.7340 h1        1 MOL     -0.035651
    122 H56         2.3160   -0.3020   -0.8030 ho        1 MOL      0.361483
    123 H57         1.0590   -1.2590   -2.2950 hc        1 MOL      0.094569
    124 H58         2.1730   -0.6270   -3.5780 hc        1 MOL      0.094569
    125 H59         1.8170   -2.4260   -3.4190 hc        1 MOL      0.094569
    126 N11         5.4890   -2.9660   -1.0470 n         1 MOL     -0.349695
    127 C39         6.8830   -2.8970   -0.5730 c3        1 MOL     -0.315813
    128 C40         7.2070   -1.4880   -0.0920 c         1 MOL      0.315737
    129 O19         7.8820   -1.3000    0.9340 o         1 MOL     -0.430402
    130 C41         7.9600   -3.4230   -1.5430 c3        1 MOL      0.469298
    131 C42         9.3480   -3.6890   -0.8590 c3        1 MOL     -0.331220
    132 O20         7.6310   -4.6830   -2.1200 oh        1 MOL     -0.583658
    133 H60         5.3770   -3.3850   -1.9520 hn        1 MOL      0.222080
    134 H61         6.8410   -3.5460    0.3040 h1        1 MOL      0.213530
    135 H62         8.1810   -2.7930   -2.3940 h1        1 MOL     -0.042135
    136 H63         6.9310   -4.5390   -2.7600 ho        1 MOL      0.371867
    137 H64        10.1120   -4.1790   -1.4580 hc        1 MOL      0.102656
    138 H65         9.6980   -2.7830   -0.3800 hc        1 MOL      0.102656
    139 H66         9.1050   -4.3620   -0.0350 hc        1 MOL      0.102656
    140 N12         6.7460   -0.3770   -0.7400 n         1 MOL     -0.265125
    141 C43         6.9480    1.0300   -0.3400 c3        1 MOL      0.050983
    142 C44         6.0450    1.4770    0.8330 c         1 MOL      0.408417
    143 O21         6.5140    2.1420    1.7040 o         1 MOL     -0.498467
    144 C45         6.6560    1.9960   -1.4860 c3        1 MOL     -0.212655
    145 C46         7.6630    2.0110   -2.6000 c3        1 MOL      0.181998
    146 C47         7.3060    2.7500   -3.8980 c3        1 MOL     -0.100230
    147 C48         8.3690    2.5630   -5.0100 c3        1 MOL      0.022248
    148 N13         9.7020    3.1520   -4.6350 n4        1 MOL     -0.298533
    149 H67         6.1650   -0.5730   -1.5450 hn        1 MOL      0.261314
    150 H68         7.9380    1.1200    0.1200 h1        1 MOL      0.084345
    151 H69         6.5300    3.0080   -1.0750 hc        1 MOL      0.059750
    152 H70         5.7290    1.6790   -1.9560 hc        1 MOL      0.059750
    153 H71         7.8710    0.9660   -2.8310 hc        1 MOL     -0.036528
    154 H72         8.4790    2.5100   -2.0750 hc        1 MOL     -0.036528
    155 H73         7.1380    3.8250   -3.7760 hc        1 MOL      0.054787
    156 H74         6.3760    2.3090   -4.2600 hc        1 MOL      0.054787
    157 H75         7.9950    2.9950   -5.9390 hx        1 MOL      0.094823
    158 H76         8.5500    1.5160   -5.2560 hx        1 MOL      0.094823
    159 H77        10.2660    2.5460   -4.0550 hn        1 MOL      0.270777
    160 H78        10.2750    3.2890   -5.4560 hn        1 MOL      0.270777
    161 H79         9.5200    4.0380   -4.1840 hn        1 MOL      0.270777
    162 N14         4.8190    0.9630    0.8560 n         1 MOL     -0.070762
    163 C49         4.0000    1.2140    2.0550 c3        1 MOL     -0.228537
    164 C50         4.5070    0.4910    3.3530 c         1 MOL      0.431870
    165 O22         4.4730    1.0430    4.4830 o         1 MOL     -0.539648
    166 C51         2.5500    0.7770    1.7930 c3        1 MOL      0.076062
    167 C52         1.8800    1.6710    0.7500 c3        1 MOL     -0.052044
    168 C53         0.5940    1.0530    0.1530 c         1 MOL      0.502702
    169 O23        -0.3570    1.7430    0.0000 o         1 MOL     -0.546865
    170 O24         0.4830   -0.1250   -0.1170 o         1 MOL     -0.546865
    171 H80         4.5560    0.3150    0.1280 hn        1 MOL     -0.038306
    172 H81         4.0040    2.2820    2.2600 h1        1 MOL      0.119122
    173 H82         2.0300    0.7230    2.7540 hc        1 MOL      0.101488
    174 H83         2.6210   -0.2240    1.3570 hc        1 MOL      0.101488
    175 H84         2.5560    1.9660   -0.0620 hc        1 MOL     -0.021950
    176 H85         1.5860    2.6220    1.2080 hc        1 MOL     -0.021950
    177 N15         5.0010   -0.7380    3.1580 n         1 MOL     -0.055714
    178 C54         5.6330   -1.5840    4.1960 c3        1 MOL     -0.279560
    179 H86         5.0640   -2.5080    4.3070 h1        1 MOL      0.111412
    180 H87         6.6550   -1.8210    3.8990 h1        1 MOL      0.111412
    181 H88         5.6440   -1.0490    5.1450 h1        1 MOL      0.111412
    182 H89         4.9220   -0.9930    2.1820 hn        1 MOL      0.172167
    183 Ca1        -1.9210   -0.3380   -1.1580 Ca        1 MOL      1.744662
    184 O25        -1.1230   -2.4610   -2.6620 oh        1 MOL     -0.826742
    185 H90        -1.7360   -3.1940   -2.7170 ho        1 MOL      0.395128
    186 H91        -1.1270   -2.0850   -3.5430 ho        1 MOL      0.395128
    187 O26        -0.4730    0.6170   -3.2540 oh        1 MOL     -0.826742
    188 H92        -1.0860    1.3090   -3.4740 ho        1 MOL      0.395128
    189 H93        -0.4070    0.0900   -4.0500 ho        1 MOL      0.395128
@<TRIPOS>BOND
     1    1    2 1   
     2    1    4 1   
     3    1    5 1   
     4    1    6 1   
     5    2    3 2   
     6    2    7 1   
     7    7    8 1   
     8    7   15 1   
     9    8    9 1   
    10    8   11 1   
    11    8   16 1   
    12    9   10 2   
    13    9   19 1   
    14   11   12 1   
    15   11   17 1   
    16   11   18 1   
    17   12   13 1   
    18   12   14 1   
    19   19   20 1   
    20   19   28 1   
    21   20   21 1   
    22   20   23 1   
    23   20   29 1   
    24   21   22 2   
    25   21   41 1   
    26   23   24 1   
    27   23   30 1   
    28   23   31 1   
    29   24   25 1   
    30   24   32 1   
    31   24   33 1   
    32   25   26 1   
    33   25   34 1   
    34   25   35 1   
    35   26   27 1   
    36   26   36 1   
    37   26   37 1   
    38   27   38 1   
    39   27   39 1   
    40   27   40 1   
    41   41   42 1   
    42   41   49 1   
    43   42   43 1   
    44   42   45 1   
    45   42   50 1   
    46   43   44 2   
    47   43   53 1   
    48   45   46 1   
    49   45   51 1   
    50   45   52 1   
    51   46   47 1   
    52   46   48 1   
    53   53   54 1   
    54   53   57 1   
    55   54   55 1   
    56   54   58 1   
    57   54   59 1   
    58   55   56 2   
    59   55   60 1   
    60   60   61 1   
    61   60   68 1   
    62   61   62 1   
    63   61   64 1   
    64   61   69 1   
    65   62   63 2   
    66   62   72 1   
    67   64   65 1   
    68   64   70 1   
    69   64   71 1   
    70   65   66 1   
    71   65   67 1   
    72   72   73 1   
    73   72   76 1   
    74   73   74 1   
    75   73   77 1   
    76   73   78 1   
    77   74   75 2   
    78   74   79 1   
    79   79   80 1   
    80   79   86 1   
    81   80   81 1   
    82   80   83 1   
    83   80   87 1   
    84   81   82 2   
    85   81   93 1   
    86   83   84 1   
    87   83   85 1   
    88   83   88 1   
    89   84   90 1   
    90   84   91 1   
    91   84   92 1   
    92   85   89 1   
    93   93   94 1   
    94   93  101 1   
    95   94   95 1   
    96   94   97 1   
    97   94  102 1   
    98   95   96 2   
    99   95  112 1   
   100   97   98 1   
   101   97   99 1   
   102   97  103 1   
   103   98  100 1   
   104   98  104 1   
   105   98  105 1   
   106   99  106 1   
   107   99  107 1   
   108   99  108 1   
   109  100  109 1   
   110  100  110 1   
   111  100  111 1   
   112  112  113 1   
   113  112  119 1   
   114  113  114 1   
   115  113  116 1   
   116  113  120 1   
   117  114  115 2   
   118  114  126 1   
   119  116  117 1   
   120  116  118 1   
   121  116  121 1   
   122  117  123 1   
   123  117  124 1   
   124  117  125 1   
   125  118  122 1   
   126  126  127 1   
   127  126  133 1   
   128  127  128 1   
   129  127  130 1   
   130  127  134 1   
   131  128  129 2   
   132  128  140 1   
   133  130  131 1   
   134  130  132 1   
   135  130  135 1   
   136  131  137 1   
   137  131  138 1   
   138  131  139 1   
   139  132  136 1   
   140  140  141 1   
   141  140  149 1   
   142  141  142 1   
   143  141  144 1   
   144  141  150 1   
   145  142  143 2   
   146  142  162 1   
   147  144  145 1   
   148  144  151 1   
   149  144  152 1   
   150  145  146 1   
   151  145  153 1   
   152  145  154 1   
   153  146  147 1   
   154  146  155 1   
   155  146  156 1   
   156  147  148 1   
   157  147  157 1   
   158  147  158 1   
   159  148  159 1   
   160  148  160 1   
   161  148  161 1   
   162  162  163 1   
   163  162  171 1   
   164  163  164 1   
   165  163  166 1   
   166  163  172 1   
   167  164  165 2   
   168  164  177 1   
   169  166  167 1   
   170  166  173 1   
   171  166  174 1   
   172  167  168 1   
   173  167  175 1   
   174  167  176 1   
   175  168  169 1   
   176  168  170 1   
   177  177  178 1   
   178  177  182 1   
   179  178  179 1   
   180  178  180 1   
   181  178  181 1   
   182  184  185 1   
   183  184  186 1   
   184  187  188 1   
   185  187  189 1   
@<TRIPOS>SUBSTRUCTURE
     1 MOL         1 TEMP              0 ****  ****    0 ROOT
