@<TRIPOS>MOLECULE
MOL
  175   173     1     0     0
SMALL
resp


@<TRIPOS>ATOM
      1 C1         -0.9040   -3.8160    5.3530 c3        1 MOL     -0.393941
      2 C2         -0.1900   -3.7220    3.9540 c         1 MOL      0.675864
      3 O1         -0.7940   -3.8070    2.8730 o         1 MOL     -0.521944
      4 H1         -1.3750   -4.7930    5.4560 hc        1 MOL      0.095795
      5 H2         -0.1680   -3.6830    6.1460 hc        1 MOL      0.095795
      6 H3         -1.6640   -3.0370    5.4270 hc        1 MOL      0.095795
      7 N1          1.1240   -3.6610    4.0270 n         1 MOL     -0.624442
      8 C3          1.9140   -3.4700    2.7840 c3        1 MOL      0.183354
      9 C4          1.9650   -4.7000    1.8980 c         1 MOL      0.630076
     10 O2          2.1560   -5.8320    2.4160 o         1 MOL     -0.589716
     11 C5          3.2790   -2.9320    3.1700 c3        1 MOL     -0.281821
     12 C6          4.1020   -2.3620    2.0510 c         1 MOL      0.791047
     13 O3          5.3380   -2.2210    2.1510 o         1 MOL     -0.703452
     14 O4          3.6320   -2.0490    0.9200 o         1 MOL     -0.703452
     15 H4          1.5710   -3.5890    4.9270 hn        1 MOL      0.347855
     16 H5          1.5070   -2.6170    2.2560 h1        1 MOL      0.026291
     17 H6          3.8450   -3.5850    3.8350 hc        1 MOL      0.044431
     18 H7          3.1150   -2.0770    3.8270 hc        1 MOL      0.044431
     19 N2          2.0890   -4.5140    0.5560 n         1 MOL     -0.554229
     20 C7          2.4000   -5.5190   -0.4900 c3        1 MOL      0.372929
     21 C8          3.4000   -5.1440   -1.6330 c         1 MOL      0.460697
     22 O5          3.4630   -5.9720   -2.5640 o         1 MOL     -0.560653
     23 C9          1.0220   -6.0770   -0.8200 c3        1 MOL     -0.301913
     24 H8          2.0140   -3.5910    0.1720 hn        1 MOL      0.342218
     25 H9          2.9060   -6.3230    0.0440 h1        1 MOL     -0.023384
     26 H10         0.4540   -5.3800   -1.4420 hc        1 MOL      0.067280
     27 H11         1.1900   -6.9450   -1.4600 hc        1 MOL      0.067280
     28 H12         0.5110   -6.2050    0.1300 hc        1 MOL      0.067280
     29 N3          4.0900   -4.0040   -1.5640 n         1 MOL     -0.423742
     30 C10         4.9270   -3.4180   -2.6860 c3        1 MOL      0.251929
     31 C11         6.2190   -2.9120   -2.1860 c         1 MOL      0.323712
     32 O6          7.2840   -3.2010   -2.6890 o         1 MOL     -0.534658
     33 C12         4.1920   -2.3610   -3.4340 c3        1 MOL     -0.255974
     34 C13         3.3810   -1.4250   -2.5490 c         1 MOL      0.633745
     35 O7          2.1070   -1.4930   -2.4720 o         1 MOL     -0.664273
     36 O8          3.9480   -0.6550   -1.7300 o         1 MOL     -0.664273
     37 H13         4.0250   -3.6090   -0.6280 hn        1 MOL      0.189017
     38 H14         5.0500   -4.1820   -3.4540 h1        1 MOL      0.039997
     39 H15         3.4300   -2.8890   -4.0120 hc        1 MOL      0.073423
     40 H16         4.9480   -1.9060   -4.0640 hc        1 MOL      0.073423
     41 N4          6.2150   -2.1990   -1.0590 n         1 MOL     -0.110622
     42 C14         7.3260   -1.3720   -0.5540 c3        1 MOL     -0.040325
     43 C15         7.5090    0.0260   -1.2300 c         1 MOL      0.367766
     44 O9          8.6090    0.4220   -1.6790 o         1 MOL     -0.570726
     45 H17         5.3060   -1.9920   -0.6500 hn        1 MOL      0.104674
     46 H18         8.2530   -1.9300   -0.6780 h1        1 MOL      0.057342
     47 H19         7.1950   -1.2650    0.5160 h1        1 MOL      0.057342
     48 N5          6.3690    0.6870   -1.4710 n         1 MOL     -0.071036
     49 C16         6.3390    2.0620   -2.0280 c3        1 MOL     -0.163953
     50 C17         6.2030    3.1830   -0.9820 c         1 MOL      0.421419
     51 O10         6.2800    4.3560   -1.3650 o         1 MOL     -0.526083
     52 C18         5.1280    2.1290   -3.0000 c3        1 MOL      0.082688
     53 C19         3.7640    2.3260   -2.4220 c         1 MOL      0.363898
     54 N6          2.8650    2.6080   -3.3320 n         1 MOL     -0.556722
     55 O11         3.4620    2.0240   -1.2650 o         1 MOL     -0.378006
     56 H20         5.5400    0.2350   -1.1100 hn        1 MOL      0.207799
     57 H21         7.2320    2.2630   -2.6290 h1        1 MOL      0.136958
     58 H22         5.0910    1.1690   -3.5270 hc        1 MOL     -0.006846
     59 H23         5.3630    2.8800   -3.7630 hc        1 MOL     -0.006846
     60 H24         3.0760    2.8170   -4.3000 hn        1 MOL      0.311990
     61 H25         1.9130    2.5240   -2.9980 hn        1 MOL      0.311990
     62 N7          6.0660    2.8770    0.2820 n         1 MOL     -0.223488
     63 C20         6.1010    3.9410    1.3380 c3        1 MOL     -0.196260
     64 C21         4.7930    4.7220    1.5560 c         1 MOL      0.501961
     65 O12         4.7190    5.7280    2.2320 o         1 MOL     -0.600693
     66 H26         6.0620    1.9210    0.5950 hn        1 MOL      0.192101
     67 H27         6.8820    4.6210    0.9990 h1        1 MOL      0.107187
     68 H28         6.3830    3.5670    2.3260 h1        1 MOL      0.107187
     69 N8          3.6730    4.2500    1.0640 n         1 MOL     -0.008059
     70 C22         2.2960    4.7430    1.3330 c3        1 MOL     -0.372110
     71 C23         1.3160    3.5970    1.5450 c         1 MOL      0.604735
     72 O13         1.5630    2.4500    1.1410 o         1 MOL     -0.605260
     73 C24         1.8140    5.6120    0.0990 c3        1 MOL      0.485688
     74 C25         2.5860    6.9410   -0.1140 c3        1 MOL     -0.409690
     75 O14         1.9930    4.8560   -1.0700 oh        1 MOL     -0.649239
     76 H29         3.7520    3.3190    0.6760 hn        1 MOL      0.126037
     77 H30         2.3060    5.3720    2.2240 h1        1 MOL      0.134915
     78 H31         0.7430    5.8020    0.1120 h1        1 MOL     -0.017577
     79 H32         1.4720    4.0500   -1.0130 ho        1 MOL      0.390342
     80 H33         2.1640    7.6750    0.5670 hc        1 MOL      0.108935
     81 H34         3.6660    6.7550   -0.0300 hc        1 MOL      0.108935
     82 H35         2.3670    7.3680   -1.0920 hc        1 MOL      0.108935
     83 N9          0.1400    3.9100    2.1260 n         1 MOL     -0.494335
     84 C26        -1.0130    2.9570    2.0970 c3        1 MOL      0.026614
     85 C27        -1.5720    3.1290    0.7350 c         1 MOL      0.523683
     86 O15        -1.8770    4.2460    0.3460 o         1 MOL     -0.572829
     87 C28        -2.0320    3.1780    3.1670 c3        1 MOL      0.063882
     88 C29        -1.4090    3.1630    4.6030 c3        1 MOL      0.158652
     89 C30        -3.1900    2.1450    3.2940 c3        1 MOL     -0.123588
     90 C31        -2.2970    3.7320    5.7390 c3        1 MOL     -0.165312
     91 H36        -0.1040    4.8590    2.3740 hn        1 MOL      0.282899
     92 H37        -0.6030    1.9640    2.2590 h1        1 MOL      0.087029
     93 H38        -2.5650    4.1170    3.0000 hc        1 MOL     -0.006948
     94 H39        -0.4850    3.7280    4.5790 hc        1 MOL     -0.039943
     95 H40        -1.0820    2.1420    4.8170 hc        1 MOL     -0.039943
     96 H41        -3.9660    2.5130    3.9670 hc        1 MOL      0.021746
     97 H42        -3.6910    1.9400    2.3410 hc        1 MOL      0.021746
     98 H43        -2.8000    1.1740    3.5890 hc        1 MOL      0.021746
     99 H44        -1.7000    3.5960    6.6440 hc        1 MOL      0.030615
    100 H45        -2.5250    4.8070    5.7070 hc        1 MOL      0.030615
    101 H46        -3.1900    3.1050    5.7850 hc        1 MOL      0.030615
    102 N10        -1.7710    2.0020   -0.0220 n         1 MOL     -0.225105
    103 C32        -2.4990    1.9070   -1.2660 c3        1 MOL      0.061190
    104 C33        -3.8810    1.3370   -1.0960 c         1 MOL      0.298181
    105 O16        -4.1490    0.6600   -0.0710 o         1 MOL     -0.242042
    106 C34        -1.6280    0.9360   -2.0920 c3        1 MOL     -0.257879
    107 C35        -0.2550    1.4170   -2.4970 c         1 MOL      0.658007
    108 O17         0.1070    1.7860   -3.6630 o         1 MOL     -0.661408
    109 O18         0.7430    1.3320   -1.6770 o         1 MOL     -0.661408
    110 H47        -1.5160    1.1390    0.4380 hn        1 MOL      0.129554
    111 H48        -2.6200    2.8560   -1.8120 h1        1 MOL      0.068671
    112 H49        -2.2180    0.6460   -2.9660 hc        1 MOL      0.082258
    113 H50        -1.5010    0.0720   -1.4400 hc        1 MOL      0.082258
    114 N11        -4.8570    1.5410   -2.0190 n         1 MOL     -0.462836
    115 C36        -6.2200    1.1980   -1.7950 c3        1 MOL      0.330186
    116 C37        -6.5360   -0.2120   -1.3480 c         1 MOL      0.294856
    117 O19        -7.3120   -0.3360   -0.4060 o         1 MOL     -0.498819
    118 C38        -7.0270    1.6310   -3.0030 c3        1 MOL     -0.272092
    119 C39        -8.4750    1.6630   -2.5740 ca        1 MOL      0.079758
    120 C40        -9.3560    0.6790   -3.1080 ca        1 MOL     -0.147270
    121 C41        -9.0430    2.6440   -1.7490 ca        1 MOL     -0.147270
    122 C42       -10.7550    0.7210   -2.9160 ca        1 MOL     -0.112749
    123 C43       -10.4210    2.6460   -1.3830 ca        1 MOL     -0.112749
    124 C44       -11.2340    1.6940   -1.9960 ca        1 MOL     -0.119203
    125 H51        -4.6590    2.0110   -2.8850 hn        1 MOL      0.293158
    126 H52        -6.4380    1.8950   -0.9900 h1        1 MOL      0.040118
    127 H53        -6.8710    0.9000   -3.7920 hc        1 MOL      0.090599
    128 H54        -6.7150    2.6260   -3.3030 hc        1 MOL      0.090599
    129 H55        -8.9650   -0.0420   -3.8120 ha        1 MOL      0.109970
    130 H56        -8.4170    3.4230   -1.3480 ha        1 MOL      0.109970
    131 H57       -11.4160    0.0580   -3.4610 ha        1 MOL      0.116819
    132 H58       -10.8590    3.3470   -0.6960 ha        1 MOL      0.116819
    133 H59       -12.2800    1.6740   -1.7320 ha        1 MOL      0.096317
    134 N12        -5.9560   -1.2940   -1.8860 n         1 MOL      0.009148
    135 C45        -6.3170   -2.6550   -1.4280 c3        1 MOL     -0.085558
    136 C46        -5.6060   -3.0360   -0.1080 c         1 MOL      0.460683
    137 O20        -5.9220   -4.0860    0.4480 o         1 MOL     -0.528185
    138 C47        -5.8770   -3.5400   -2.5070 c3        1 MOL     -0.124132
    139 C48        -4.5800   -2.9040   -3.0990 c3        1 MOL      0.059609
    140 C49        -5.0520   -1.4270   -2.9940 c3        1 MOL     -0.092788
    141 H60        -7.3650   -2.8230   -1.1540 h1        1 MOL      0.104716
    142 H61        -5.6030   -4.5300   -2.1430 hc        1 MOL      0.047908
    143 H62        -6.6690   -3.6240   -3.2440 hc        1 MOL      0.047908
    144 H63        -3.7550   -3.0990   -2.4200 hc        1 MOL      0.028447
    145 H64        -4.3190   -3.2410   -4.1030 hc        1 MOL      0.028447
    146 H65        -4.2070   -0.7380   -2.9470 h1        1 MOL      0.024661
    147 H66        -5.5230   -1.0730   -3.9110 h1        1 MOL      0.024661
    148 N13        -4.7760   -2.0970    0.4250 n         1 MOL     -0.161043
    149 C50        -4.1940   -2.2340    1.7460 c3        1 MOL     -0.005713
    150 C51        -5.1200   -1.4520    2.7600 c         1 MOL      0.403753
    151 O21        -5.4750   -1.9960    3.8250 o         1 MOL     -0.561719
    152 C52        -2.7920   -1.5820    1.7560 c3        1 MOL     -0.016638
    153 C53        -1.9190   -2.0920    0.6540 c3        1 MOL     -0.184711
    154 C54        -0.5520   -1.4790    0.7250 c         1 MOL      0.651188
    155 O22         0.3680   -2.0640    0.0850 o         1 MOL     -0.706548
    156 O23        -0.2870   -0.3060    1.1670 o         1 MOL     -0.706548
    157 H67        -4.4570   -1.3600   -0.1850 hn        1 MOL      0.107110
    158 H68        -4.2620   -3.2850    2.0540 h1        1 MOL      0.092618
    159 H69        -2.3220   -1.8030    2.7130 hc        1 MOL      0.024838
    160 H70        -2.8130   -0.4940    1.6320 hc        1 MOL      0.024838
    161 H71        -2.3120   -1.8290   -0.3270 hc        1 MOL      0.090758
    162 H72        -1.8760   -3.1640    0.8130 hc        1 MOL      0.090758
    163 N14        -5.5430   -0.2510    2.4200 n         1 MOL     -0.090642
    164 C55        -6.5370    0.5140    3.1760 c3        1 MOL     -0.137904
    165 H73        -7.0160   -0.1380    3.9080 h1        1 MOL      0.067179
    166 H74        -6.0470    1.3400    3.6910 h1        1 MOL      0.067179
    167 H75        -7.2910    0.9060    2.4930 h1        1 MOL      0.067179
    168 H76        -5.2680    0.0620    1.4930 hn        1 MOL      0.064612
    169 Ca1         2.1100    0.0780   -0.0190 Ca        1 MOL      1.705785
    170 O24         1.6430   -0.2920    2.8490 oh        1 MOL     -0.794268
    171 H77         0.7240   -0.2810    2.5800 ho        1 MOL      0.383049
    172 H78         1.6250   -0.5990    3.7540 ho        1 MOL      0.383049
    173 O25         4.5410    0.5630    1.2090 oh        1 MOL     -0.794268
    174 H79         4.9300   -0.3060    1.3370 ho        1 MOL      0.383049
    175 H80         4.5170    0.9440    2.0880 ho        1 MOL      0.383049
@<TRIPOS>BOND
     1    1    2 1   
     2    1    4 1   
     3    1    5 1   
     4    1    6 1   
     5    2    3 2   
     6    2    7 1   
     7    7    8 1   
     8    7   15 1   
     9    8    9 1   
    10    8   11 1   
    11    8   16 1   
    12    9   10 2   
    13    9   19 1   
    14   11   12 1   
    15   11   17 1   
    16   11   18 1   
    17   12   13 1   
    18   12   14 1   
    19   19   20 1   
    20   19   24 1   
    21   20   21 1   
    22   20   23 1   
    23   20   25 1   
    24   21   22 2   
    25   21   29 1   
    26   23   26 1   
    27   23   27 1   
    28   23   28 1   
    29   29   30 1   
    30   29   37 1   
    31   30   31 1   
    32   30   33 1   
    33   30   38 1   
    34   31   32 2   
    35   31   41 1   
    36   33   34 1   
    37   33   39 1   
    38   33   40 1   
    39   34   35 1   
    40   34   36 1   
    41   41   42 1   
    42   41   45 1   
    43   42   43 1   
    44   42   46 1   
    45   42   47 1   
    46   43   44 2   
    47   43   48 1   
    48   48   49 1   
    49   48   56 1   
    50   49   50 1   
    51   49   52 1   
    52   49   57 1   
    53   50   51 2   
    54   50   62 1   
    55   52   53 1   
    56   52   58 1   
    57   52   59 1   
    58   53   54 1   
    59   53   55 2   
    60   54   60 1   
    61   54   61 1   
    62   62   63 1   
    63   62   66 1   
    64   63   64 1   
    65   63   67 1   
    66   63   68 1   
    67   64   65 2   
    68   64   69 1   
    69   69   70 1   
    70   69   76 1   
    71   70   71 1   
    72   70   73 1   
    73   70   77 1   
    74   71   72 2   
    75   71   83 1   
    76   73   74 1   
    77   73   75 1   
    78   73   78 1   
    79   74   80 1   
    80   74   81 1   
    81   74   82 1   
    82   75   79 1   
    83   83   84 1   
    84   83   91 1   
    85   84   85 1   
    86   84   87 1   
    87   84   92 1   
    88   85   86 2   
    89   85  102 1   
    90   87   88 1   
    91   87   89 1   
    92   87   93 1   
    93   88   90 1   
    94   88   94 1   
    95   88   95 1   
    96   89   96 1   
    97   89   97 1   
    98   89   98 1   
    99   90   99 1   
   100   90  100 1   
   101   90  101 1   
   102  102  103 1   
   103  102  110 1   
   104  103  104 1   
   105  103  106 1   
   106  103  111 1   
   107  104  105 2   
   108  104  114 1   
   109  106  107 1   
   110  106  112 1   
   111  106  113 1   
   112  107  108 1   
   113  107  109 1   
   114  114  115 1   
   115  114  125 1   
   116  115  116 1   
   117  115  118 1   
   118  115  126 1   
   119  116  117 2   
   120  116  134 1   
   121  118  119 1   
   122  118  127 1   
   123  118  128 1   
   124  119  120 ar  
   125  119  121 ar  
   126  120  122 ar  
   127  120  129 1   
   128  121  123 ar  
   129  121  130 1   
   130  122  124 ar  
   131  122  131 1   
   132  123  124 ar  
   133  123  132 1   
   134  124  133 1   
   135  134  135 1   
   136  134  140 1   
   137  135  136 1   
   138  135  138 1   
   139  135  141 1   
   140  136  137 2   
   141  136  148 1   
   142  138  139 1   
   143  138  142 1   
   144  138  143 1   
   145  139  140 1   
   146  139  144 1   
   147  139  145 1   
   148  140  146 1   
   149  140  147 1   
   150  148  149 1   
   151  148  157 1   
   152  149  150 1   
   153  149  152 1   
   154  149  158 1   
   155  150  151 2   
   156  150  163 1   
   157  152  153 1   
   158  152  159 1   
   159  152  160 1   
   160  153  154 1   
   161  153  161 1   
   162  153  162 1   
   163  154  155 1   
   164  154  156 1   
   165  163  164 1   
   166  163  168 1   
   167  164  165 1   
   168  164  166 1   
   169  164  167 1   
   170  170  171 1   
   171  170  172 1   
   172  173  174 1   
   173  173  175 1   
@<TRIPOS>SUBSTRUCTURE
     1 MOL         1 TEMP              0 ****  ****    0 ROOT
