@<TRIPOS>MOLECULE
MOL
  172   171     1     0     0
SMALL
resp


@<TRIPOS>ATOM
      1 C1         -0.0030    3.7430    5.5770 c3        1 MOL     -0.508344
      2 C2         -0.5750    3.7270    4.1370 c         1 MOL      0.735691
      3 O1          0.2160    3.7520    3.1950 o         1 MOL     -0.574614
      4 H1         -0.8050    3.5420    6.2880 hc        1 MOL      0.127078
      5 H2          0.7650    2.9750    5.6710 hc        1 MOL      0.127078
      6 H3          0.4310    4.7210    5.7860 hc        1 MOL      0.127078
      7 N1         -1.8750    3.6040    3.8850 n         1 MOL     -0.614381
      8 C3         -2.4920    3.2830    2.6280 c3        1 MOL      0.315966
      9 C4         -2.8850    4.5770    1.8950 c         1 MOL      0.630214
     10 O2         -3.4130    5.4940    2.4610 o         1 MOL     -0.605552
     11 C5         -3.7670    2.4650    2.9970 c3        1 MOL     -0.309650
     12 C6         -4.4780    1.9730    1.6830 c         1 MOL      0.717813
     13 O3         -3.8950    1.9280    0.5290 o         1 MOL     -0.673107
     14 O4         -5.7130    1.6960    1.7280 o         1 MOL     -0.673107
     15 H4         -2.4160    3.6580    4.7390 hn        1 MOL      0.297261
     16 H5         -1.8780    2.6290    1.9980 h1        1 MOL     -0.030345
     17 H6         -4.4390    3.1160    3.5510 hc        1 MOL      0.052038
     18 H7         -3.5400    1.5580    3.5530 hc        1 MOL      0.052038
     19 N2         -2.5290    4.5930    0.6470 n         1 MOL     -0.617921
     20 C7         -2.9200    5.6570   -0.2460 c3        1 MOL      0.399393
     21 C8         -3.6130    5.0560   -1.5650 c         1 MOL      0.520380
     22 O5         -3.5900    5.6650   -2.5620 o         1 MOL     -0.543510
     23 C9         -1.6610    6.4630   -0.5860 c3        1 MOL     -0.325803
     24 H8         -2.1570    3.7760    0.1810 hn        1 MOL      0.385663
     25 H9         -3.6690    6.3350    0.1590 h1        1 MOL     -0.017690
     26 H10        -1.0240    5.8530   -1.2270 hc        1 MOL      0.069988
     27 H11        -1.9810    7.3470   -1.1470 hc        1 MOL      0.069988
     28 H12        -1.1910    6.7970    0.3440 hc        1 MOL      0.069988
     29 N3         -4.3310    3.8990   -1.5320 n         1 MOL     -0.506340
     30 C10        -5.1000    3.3620   -2.6860 c3        1 MOL      0.153463
     31 C11        -6.3170    2.4860   -2.2600 c         1 MOL      0.305761
     32 O6         -7.2450    2.4280   -3.1250 o         1 MOL     -0.559116
     33 C12        -4.2770    2.4600   -3.6270 c3        1 MOL     -0.143196
     34 C13        -3.2480    1.5960   -2.8670 c         1 MOL      0.579628
     35 O7         -3.7150    0.5900   -2.2940 o         1 MOL     -0.626862
     36 O8         -2.0110    1.7860   -2.7850 o         1 MOL     -0.626862
     37 H13        -4.2470    3.4150   -0.6500 hn        1 MOL      0.184171
     38 H14        -5.4950    4.2270   -3.2130 h1        1 MOL      0.064629
     39 H15        -3.6360    2.9890   -4.3340 hc        1 MOL      0.046590
     40 H16        -4.9600    1.8470   -4.2180 hc        1 MOL      0.046590
     41 N4         -6.2890    1.7440   -1.1410 n         1 MOL     -0.029919
     42 C14        -7.3800    0.9540   -0.6880 c3        1 MOL     -0.240567
     43 C15        -7.3250   -0.4780   -1.2510 c         1 MOL      0.457314
     44 O9         -8.3140   -1.2300   -1.1460 o         1 MOL     -0.608529
     45 H17        -5.4600    1.8090   -0.5730 hn        1 MOL      0.170959
     46 H18        -8.3420    1.4600   -0.7910 h1        1 MOL      0.126427
     47 H19        -7.3950    0.9510    0.4050 h1        1 MOL      0.126427
     48 N5         -6.2120   -0.9660   -1.7970 n         1 MOL     -0.005441
     49 C16        -6.0340   -2.3590   -2.1930 c3        1 MOL     -0.293389
     50 C17        -6.0150   -3.5120   -1.1500 c         1 MOL      0.468546
     51 O10        -5.8260   -4.6950   -1.3860 o         1 MOL     -0.487631
     52 C18        -4.7940   -2.4660   -3.1190 c3        1 MOL      0.168956
     53 C19        -3.3600   -2.3830   -2.5300 c         1 MOL      0.381551
     54 N6         -2.3590   -2.4290   -3.3350 n         1 MOL     -0.603647
     55 O11        -3.3050   -2.1850   -1.3460 o         1 MOL     -0.557385
     56 H20        -5.3780   -0.4090   -1.8630 hn        1 MOL      0.002212
     57 H21        -6.8760   -2.5330   -2.8670 h1        1 MOL      0.135871
     58 H22        -4.8900   -1.8410   -4.0010 hc        1 MOL     -0.004241
     59 H23        -4.9300   -3.4070   -3.6630 hc        1 MOL     -0.004241
     60 H24        -2.4780   -2.5460   -4.3330 hn        1 MOL      0.334037
     61 H25        -1.4260   -2.2580   -3.0020 hn        1 MOL      0.334037
     62 N7         -6.1650   -3.0470    0.1370 n         1 MOL     -0.181601
     63 C20        -6.2500   -3.8740    1.3620 c3        1 MOL     -0.234680
     64 C21        -4.8720   -4.5140    1.7890 c         1 MOL      0.472982
     65 O12        -4.8510   -5.5770    2.4350 o         1 MOL     -0.560800
     66 H26        -6.4470   -2.0850    0.2910 hn        1 MOL      0.245331
     67 H27        -6.8960   -4.7060    1.0750 h1        1 MOL      0.109234
     68 H28        -6.6650   -3.3140    2.1980 h1        1 MOL      0.109234
     69 N8         -3.7290   -3.9820    1.2700 n         1 MOL     -0.122928
     70 C22        -2.2510   -4.4150    1.4920 c3        1 MOL     -0.448796
     71 C23        -1.2680   -3.2350    1.4050 c         1 MOL      0.549902
     72 O13        -1.3630   -2.3820    0.5170 o         1 MOL     -0.476193
     73 C24        -1.8380   -5.4660    0.3770 c3        1 MOL      0.542461
     74 C25        -2.3900   -6.8650    0.7560 c3        1 MOL     -0.432675
     75 O14        -2.0780   -5.0420   -0.9290 oh        1 MOL     -0.605471
     76 H29        -3.8270   -3.0520    0.8850 hn        1 MOL      0.287549
     77 H30        -2.1000   -4.8390    2.4830 h1        1 MOL      0.128671
     78 H31        -0.7510   -5.5030    0.4410 h1        1 MOL     -0.038267
     79 H32        -1.8130   -4.1310   -1.0580 ho        1 MOL      0.379647
     80 H33        -1.7200   -7.6640    0.4410 hc        1 MOL      0.113958
     81 H34        -2.4570   -7.0390    1.8290 hc        1 MOL      0.113958
     82 H35        -3.3990   -7.0470    0.3900 hc        1 MOL      0.113958
     83 N9         -0.2320   -3.3370    2.2250 n         1 MOL     -0.332408
     84 C26         0.9330   -2.5690    2.1460 c3        1 MOL     -0.095003
     85 C27         1.9010   -2.9310    1.0250 c         1 MOL      0.651789
     86 O15         2.3820   -4.0540    0.9870 o         1 MOL     -0.599321
     87 C28         1.7770   -2.5900    3.4430 c3        1 MOL     -0.007634
     88 C29         0.9720   -1.9820    4.6400 c3        1 MOL      0.122621
     89 C30         3.1040   -1.8170    3.2670 c3        1 MOL     -0.086840
     90 C31         1.4420   -2.5320    6.0100 c3        1 MOL     -0.022066
     91 H36        -0.1560   -4.1520    2.8180 hn        1 MOL      0.257246
     92 H37         0.5240   -1.5700    1.9930 h1        1 MOL      0.034346
     93 H38         2.0380   -3.6340    3.6150 hc        1 MOL      0.017116
     94 H39        -0.0950   -2.1950    4.6360 hc        1 MOL     -0.022628
     95 H40         1.0820   -0.8960    4.6550 hc        1 MOL     -0.022628
     96 H41         3.4550   -1.5900    4.2780 hc        1 MOL      0.020911
     97 H42         3.8350   -2.4230    2.7290 hc        1 MOL      0.020911
     98 H43         2.8960   -0.9120    2.7000 hc        1 MOL      0.020911
     99 H44         1.0100   -3.5190    6.1840 hc        1 MOL     -0.011637
    100 H45         2.5210   -2.6600    6.0750 hc        1 MOL     -0.011637
    101 H46         1.0510   -1.8720    6.7800 hc        1 MOL     -0.011637
    102 N10         1.9670   -2.0570    0.0790 n         1 MOL     -0.222123
    103 C32         2.8740   -2.1250   -1.0440 c3        1 MOL     -0.127805
    104 C33         4.3140   -1.7320   -0.6150 c         1 MOL      0.499960
    105 O16         4.5220   -1.3370    0.5420 o         1 MOL     -0.378417
    106 C34         2.3180   -1.1720   -2.1480 c3        1 MOL     -0.181328
    107 C35         0.7680   -1.4270   -2.3740 c         1 MOL      0.686395
    108 O17        -0.0490   -0.5750   -1.8830 o         1 MOL     -0.658767
    109 O18         0.4210   -2.2400   -3.2710 o         1 MOL     -0.658767
    110 H47         1.4410   -1.2040    0.1460 hn        1 MOL      0.081409
    111 H48         2.9250   -3.1230   -1.4930 h1        1 MOL      0.096494
    112 H49         2.8450   -1.2480   -3.0940 hc        1 MOL      0.085104
    113 H50         2.5180   -0.1360   -1.8460 hc        1 MOL      0.085104
    114 N11         5.3170   -1.8100   -1.5010 n         1 MOL     -0.594384
    115 C36         6.6800   -1.3810   -1.2900 c3        1 MOL      0.320434
    116 C37         6.7620    0.1620   -1.0610 c         1 MOL      0.407919
    117 O19         7.3900    0.6350   -0.0940 o         1 MOL     -0.490514
    118 C38         7.6710   -1.8410   -2.3820 c3        1 MOL     -0.197189
    119 C39         9.0960   -1.4940   -2.0640 ca        1 MOL      0.015076
    120 C40         9.6620   -2.0880   -0.9100 ca        1 MOL     -0.086331
    121 C41         9.8070   -0.5980   -2.8800 ca        1 MOL     -0.086331
    122 C42        10.9970   -1.7650   -0.5730 ca        1 MOL     -0.211027
    123 C43        11.1500   -0.3280   -2.5390 ca        1 MOL     -0.211027
    124 C44        11.6920   -0.8530   -1.3300 ca        1 MOL      0.011018
    125 H51         5.1280   -2.3500   -2.3350 hn        1 MOL      0.305639
    126 H52         7.0090   -1.8080   -0.3480 h1        1 MOL      0.034810
    127 H53         7.4740   -1.3840   -3.3510 hc        1 MOL      0.063804
    128 H54         7.6250   -2.9140   -2.6140 hc        1 MOL      0.063804
    129 H55         9.1300   -2.7680   -0.2570 ha        1 MOL      0.115094
    130 H56         9.4620   -0.2580   -3.8380 ha        1 MOL      0.115094
    131 H57        11.5130   -2.2420    0.2430 ha        1 MOL      0.129838
    132 H58        11.7630    0.3780   -3.0880 ha        1 MOL      0.129838
    133 H59        12.7280   -0.6270   -1.1070 ha        1 MOL      0.067213
    134 N12         5.9800    0.9540   -1.8450 n         1 MOL     -0.206329
    135 C45         6.0600    2.4040   -1.6060 c3        1 MOL     -0.020826
    136 C46         5.4300    2.9240   -0.3390 c         1 MOL      0.404904
    137 O20         5.7500    4.1200   -0.0320 o         1 MOL     -0.528469
    138 C47         5.3600    2.9860   -2.8320 c3        1 MOL     -0.019606
    139 C48         5.5430    1.8890   -3.8820 c3        1 MOL     -0.005609
    140 C49         5.2190    0.6820   -3.0920 c3        1 MOL      0.088672
    141 H60         7.0600    2.8460   -1.5480 h1        1 MOL      0.084724
    142 H61         4.3150    3.2320   -2.6360 hc        1 MOL      0.037961
    143 H62         5.8230    3.9150   -3.1790 hc        1 MOL      0.037961
    144 H63         4.8780    2.0410   -4.7350 hc        1 MOL      0.004082
    145 H64         6.5670    1.8360   -4.2580 hc        1 MOL      0.004082
    146 H65         4.1450    0.5390   -3.0380 h1        1 MOL      0.015546
    147 H66         5.6460   -0.1440   -3.6710 h1        1 MOL      0.015546
    148 N13         4.5500    2.1120    0.2640 n         1 MOL     -0.297090
    149 C50         3.8540    2.3430    1.5890 c3        1 MOL     -0.094700
    150 C51         4.6900    1.8100    2.7560 c         1 MOL      0.474708
    151 O21         4.6080    2.2880    3.8700 o         1 MOL     -0.546922
    152 C52         2.4730    1.7730    1.5700 c3        1 MOL      0.053508
    153 C53         1.5490    2.3100    0.4750 c3        1 MOL     -0.016917
    154 C54         0.1270    1.7390    0.5580 c         1 MOL      0.513469
    155 O22        -0.7200    2.3140   -0.1590 o         1 MOL     -0.671216
    156 O23        -0.0390    0.5960    1.0490 o         1 MOL     -0.671216
    157 H67         4.3630    1.2160   -0.1590 hn        1 MOL      0.185095
    158 H68         3.7130    3.4130    1.7100 h1        1 MOL      0.113909
    159 H69         1.9950    2.0090    2.5230 hc        1 MOL      0.058445
    160 H70         2.4600    0.6960    1.4240 hc        1 MOL      0.058445
    161 H71         1.9550    1.9530   -0.4750 hc        1 MOL      0.044824
    162 H72         1.5660    3.4000    0.5160 hc        1 MOL      0.044824
    163 N14         5.4710    0.6970    2.4910 n         1 MOL     -0.103649
    164 C55         6.4160    0.2220    3.4760 c3        1 MOL     -0.131277
    165 H73         7.3540   -0.0350    2.9840 h1        1 MOL      0.056026
    166 H74         6.5960    1.0030    4.2140 h1        1 MOL      0.056026
    167 H75         6.0130   -0.6620    3.9710 h1        1 MOL      0.056026
    168 H76         5.3700    0.2150    1.6030 hn        1 MOL      0.098069
    169 Ca1        -2.1870    0.0420   -0.4500 Ca        1 MOL      1.698910
    170 O24        -3.5600   -1.1320    1.8110 oh        1 MOL     -0.978643
    171 H77        -4.3560   -0.9240    2.2830 ho        1 MOL      0.447676
    172 H78        -2.8570   -0.9890    2.4450 ho        1 MOL      0.447676
@<TRIPOS>BOND
     1    1    2 1   
     2    1    4 1   
     3    1    5 1   
     4    1    6 1   
     5    2    3 2   
     6    2    7 1   
     7    7    8 1   
     8    7   15 1   
     9    8    9 1   
    10    8   11 1   
    11    8   16 1   
    12    9   10 2   
    13    9   19 1   
    14   11   12 1   
    15   11   17 1   
    16   11   18 1   
    17   12   13 1   
    18   12   14 1   
    19   19   20 1   
    20   19   24 1   
    21   20   21 1   
    22   20   23 1   
    23   20   25 1   
    24   21   22 2   
    25   21   29 1   
    26   23   26 1   
    27   23   27 1   
    28   23   28 1   
    29   29   30 1   
    30   29   37 1   
    31   30   31 1   
    32   30   33 1   
    33   30   38 1   
    34   31   32 2   
    35   31   41 1   
    36   33   34 1   
    37   33   39 1   
    38   33   40 1   
    39   34   35 1   
    40   34   36 1   
    41   41   42 1   
    42   41   45 1   
    43   42   43 1   
    44   42   46 1   
    45   42   47 1   
    46   43   44 2   
    47   43   48 1   
    48   48   49 1   
    49   48   56 1   
    50   49   50 1   
    51   49   52 1   
    52   49   57 1   
    53   50   51 2   
    54   50   62 1   
    55   52   53 1   
    56   52   58 1   
    57   52   59 1   
    58   53   54 1   
    59   53   55 2   
    60   54   60 1   
    61   54   61 1   
    62   62   63 1   
    63   62   66 1   
    64   63   64 1   
    65   63   67 1   
    66   63   68 1   
    67   64   65 2   
    68   64   69 1   
    69   69   70 1   
    70   69   76 1   
    71   70   71 1   
    72   70   73 1   
    73   70   77 1   
    74   71   72 2   
    75   71   83 1   
    76   73   74 1   
    77   73   75 1   
    78   73   78 1   
    79   74   80 1   
    80   74   81 1   
    81   74   82 1   
    82   75   79 1   
    83   83   84 1   
    84   83   91 1   
    85   84   85 1   
    86   84   87 1   
    87   84   92 1   
    88   85   86 2   
    89   85  102 1   
    90   87   88 1   
    91   87   89 1   
    92   87   93 1   
    93   88   90 1   
    94   88   94 1   
    95   88   95 1   
    96   89   96 1   
    97   89   97 1   
    98   89   98 1   
    99   90   99 1   
   100   90  100 1   
   101   90  101 1   
   102  102  103 1   
   103  102  110 1   
   104  103  104 1   
   105  103  106 1   
   106  103  111 1   
   107  104  105 2   
   108  104  114 1   
   109  106  107 1   
   110  106  112 1   
   111  106  113 1   
   112  107  108 1   
   113  107  109 1   
   114  114  115 1   
   115  114  125 1   
   116  115  116 1   
   117  115  118 1   
   118  115  126 1   
   119  116  117 2   
   120  116  134 1   
   121  118  119 1   
   122  118  127 1   
   123  118  128 1   
   124  119  120 ar  
   125  119  121 ar  
   126  120  122 ar  
   127  120  129 1   
   128  121  123 ar  
   129  121  130 1   
   130  122  124 ar  
   131  122  131 1   
   132  123  124 ar  
   133  123  132 1   
   134  124  133 1   
   135  134  135 1   
   136  134  140 1   
   137  135  136 1   
   138  135  138 1   
   139  135  141 1   
   140  136  137 2   
   141  136  148 1   
   142  138  139 1   
   143  138  142 1   
   144  138  143 1   
   145  139  140 1   
   146  139  144 1   
   147  139  145 1   
   148  140  146 1   
   149  140  147 1   
   150  148  149 1   
   151  148  157 1   
   152  149  150 1   
   153  149  152 1   
   154  149  158 1   
   155  150  151 2   
   156  150  163 1   
   157  152  153 1   
   158  152  159 1   
   159  152  160 1   
   160  153  154 1   
   161  153  161 1   
   162  153  162 1   
   163  154  155 1   
   164  154  156 1   
   165  163  164 1   
   166  163  168 1   
   167  164  165 1   
   168  164  166 1   
   169  164  167 1   
   170  170  171 1   
   171  170  172 1   
@<TRIPOS>SUBSTRUCTURE
     1 MOL         1 TEMP              0 ****  ****    0 ROOT
