@<TRIPOS>MOLECULE
MOL
  183   181     1     0     0
SMALL
resp


@<TRIPOS>ATOM
      1 C1          1.0270   -2.1760    6.4370 c3        1 MOL     -0.351640
      2 C2          1.2290   -2.1710    4.9510 c         1 MOL      0.738798
      3 O1          0.3280   -2.5020    4.2360 o         1 MOL     -0.574116
      4 H1          1.9240   -1.7970    6.9260 hc        1 MOL      0.079908
      5 H2          0.1790   -1.5410    6.6910 hc        1 MOL      0.079908
      6 H3          0.8330   -3.1940    6.7740 hc        1 MOL      0.079908
      7 N1          2.4640   -1.9270    4.4300 n         1 MOL     -0.641527
      8 C3          2.7160   -1.9060    2.9820 c3        1 MOL      0.304049
      9 C4          3.2350   -3.2470    2.4730 c         1 MOL      0.528123
     10 O2          4.2690   -3.6630    2.9710 o         1 MOL     -0.584558
     11 C5          3.7740   -0.7570    2.9260 c3        1 MOL     -0.100560
     12 C6          4.2750   -0.4760    1.4700 c         1 MOL      0.794277
     13 O3          5.2620    0.3400    1.3750 o         1 MOL     -0.731803
     14 O4          3.6400   -1.0490    0.5830 o         1 MOL     -0.731803
     15 H4          3.1140   -1.3880    4.9970 hn        1 MOL      0.298597
     16 H5          1.8500   -1.6340    2.3870 h1        1 MOL     -0.024410
     17 H6          4.6540   -0.9460    3.5290 hc        1 MOL     -0.012200
     18 H7          3.2420    0.0990    3.3530 hc        1 MOL     -0.012200
     19 N2          2.4100   -3.9450    1.6730 n         1 MOL     -0.167583
     20 C7          2.6990   -5.3830    1.2850 c3        1 MOL     -0.511017
     21 C8          3.7480   -5.3730    0.1460 c         1 MOL      0.699461
     22 O5          4.2850   -6.3930   -0.1720 o         1 MOL     -0.592825
     23 C9          1.3810   -6.1130    0.9300 c3        1 MOL      0.410416
     24 C10         0.7400   -5.5500   -0.3550 c3        1 MOL     -0.148493
     25 C11         0.3600   -5.9820    2.1480 c3        1 MOL     -0.310912
     26 C12        -0.3050   -6.4880   -0.9470 c3        1 MOL     -0.469651
     27 H8          1.6610   -3.3850    1.2900 hn        1 MOL      0.148272
     28 H9          3.1190   -5.9100    2.1360 h1        1 MOL      0.179158
     29 H10         1.5850   -7.1610    0.7040 hc        1 MOL     -0.058389
     30 H11         1.5790   -5.3720   -1.0180 hc        1 MOL      0.133039
     31 H12         0.2170   -4.6390   -0.0660 hc        1 MOL      0.133039
     32 H13        -0.4270   -6.7400    2.0470 hc        1 MOL      0.069495
     33 H14         0.8380   -6.2370    3.0930 hc        1 MOL      0.069495
     34 H15        -0.0390   -4.9710    2.0980 hc        1 MOL      0.069495
     35 H16         0.0940   -7.4270   -1.3350 hc        1 MOL      0.123024
     36 H17        -1.1020   -6.6350   -0.2340 hc        1 MOL      0.123024
     37 H18        -0.7420   -5.9590   -1.8030 hc        1 MOL      0.123024
     38 N3          4.0710   -4.2180   -0.5210 n         1 MOL     -0.409947
     39 C13         4.9750   -4.1610   -1.6670 c3        1 MOL      0.168235
     40 C14         6.2570   -3.3930   -1.4670 c         1 MOL      0.380949
     41 O6          7.2460   -3.6620   -2.0820 o         1 MOL     -0.557449
     42 C15         4.2620   -3.7100   -2.9220 c3        1 MOL     -0.305715
     43 C16         3.5000   -2.3140   -2.6930 c         1 MOL      0.736462
     44 O7          4.1970   -1.3490   -2.3180 o         1 MOL     -0.708537
     45 O8          2.3050   -2.0930   -2.7370 o         1 MOL     -0.708537
     46 H19         3.5500   -3.3860   -0.2650 hn        1 MOL      0.206865
     47 H20         5.2210   -5.1790   -1.9370 h1        1 MOL      0.063699
     48 H21         3.5940   -4.5000   -3.2490 hc        1 MOL      0.073220
     49 H22         5.0000   -3.5990   -3.7120 hc        1 MOL      0.073220
     50 N4          6.2370   -2.4030   -0.5770 n         1 MOL     -0.131325
     51 C17         7.4860   -1.6360   -0.2200 c3        1 MOL     -0.259530
     52 C18         7.8000   -0.3960   -0.9960 c         1 MOL      0.547127
     53 O9          8.9310    0.1210   -0.7450 o         1 MOL     -0.600972
     54 H23         5.3730   -2.1530   -0.1260 hn        1 MOL      0.104435
     55 H24         8.3290   -2.3260   -0.1940 h1        1 MOL      0.135033
     56 H25         7.3630   -1.3150    0.8100 h1        1 MOL      0.135033
     57 N5          6.8660    0.1520   -1.8770 n         1 MOL     -0.263186
     58 C19         7.0630    1.4230   -2.5640 c3        1 MOL      0.016114
     59 C20         7.1630    2.6840   -1.6420 c         1 MOL      0.399949
     60 O10         7.7170    3.7130   -2.0900 o         1 MOL     -0.579921
     61 C21         5.9170    1.7390   -3.5950 c3        1 MOL     -0.187120
     62 C22         4.4980    1.5830   -3.0050 c         1 MOL      0.893601
     63 O11         3.5590    1.0880   -3.5860 o         1 MOL     -0.808776
     64 O12         4.2610    2.0630   -1.8830 o         1 MOL     -0.808776
     65 H26         5.9900   -0.3440   -1.9650 hn        1 MOL      0.196107
     66 H27         8.0310    1.3730   -3.0530 h1        1 MOL      0.068164
     67 H28         6.1340    1.1020   -4.4530 hc        1 MOL      0.040040
     68 H29         5.9860    2.7740   -3.9250 hc        1 MOL      0.040040
     69 N6          6.7260    2.5840   -0.3690 n         1 MOL     -0.108780
     70 C23         6.7830    3.6520    0.6360 c3        1 MOL     -0.145585
     71 C24         5.4530    4.2050    1.2380 c         1 MOL      0.566859
     72 O13         5.5640    4.9730    2.1870 o         1 MOL     -0.601080
     73 H30         6.2500    1.7350   -0.1070 hn        1 MOL      0.213922
     74 H31         7.2800    4.5690    0.3180 h1        1 MOL      0.072308
     75 H32         7.3710    3.2110    1.4380 h1        1 MOL      0.072308
     76 N7          4.3000    3.7450    0.7030 n         1 MOL     -0.238938
     77 C25         3.0750    4.2280    1.3340 c3        1 MOL      0.045789
     78 C26         2.0250    3.1550    1.2630 c         1 MOL      0.489961
     79 O14         2.1320    2.1060    0.6070 o         1 MOL     -0.652092
     80 C27         2.4680    5.4060    0.5250 c3        1 MOL      0.020115
     81 C28         3.2100    6.7050    0.7590 c3        1 MOL     -0.328022
     82 C29         2.8720    7.6950   -0.3780 c         1 MOL      0.677935
     83 N8          3.6980    7.9420   -1.4000 n         1 MOL     -0.785941
     84 O15         1.8770    8.2840   -0.3910 o         1 MOL     -0.570589
     85 H33         4.3170    2.9720    0.0490 hn        1 MOL      0.165441
     86 H34         3.2770    4.5370    2.3570 h1        1 MOL      0.051730
     87 H35         1.4570    5.5380    0.9140 hc        1 MOL      0.041913
     88 H36         2.4850    5.2470   -0.5520 hc        1 MOL      0.041913
     89 H37         4.2500    6.4090    0.6510 hc        1 MOL      0.088261
     90 H38         3.0600    7.0440    1.7880 hc        1 MOL      0.088261
     91 H39         4.5780    7.4510   -1.5070 hn        1 MOL      0.351763
     92 H40         3.3940    8.7130   -1.9780 hn        1 MOL      0.351763
     93 N9          1.0230    3.4340    2.0500 n         1 MOL     -0.255277
     94 C30        -0.2340    2.6100    2.1450 c3        1 MOL     -0.119073
     95 C31        -1.2340    3.1010    1.1990 c         1 MOL      0.354111
     96 O16        -1.8280    4.1330    1.3980 o         1 MOL     -0.538973
     97 C32        -0.6660    2.6480    3.6400 c3        1 MOL      0.357383
     98 C33        -1.9500    1.7350    3.8030 c3        1 MOL     -0.321541
     99 C34         0.3270    1.9780    4.5200 c3        1 MOL     -0.321541
    100 H41         1.2250    4.1790    2.6980 hn        1 MOL      0.236869
    101 H42        -0.0650    1.5790    1.8460 h1        1 MOL      0.178048
    102 H43        -0.7680    3.6220    4.1040 hc        1 MOL     -0.036963
    103 H44        -2.2680    1.5960    4.8290 hc        1 MOL      0.060179
    104 H45        -2.7240    2.2890    3.2700 hc        1 MOL      0.060179
    105 H46        -1.8700    0.7360    3.3750 hc        1 MOL      0.060179
    106 H47         1.2880    2.4840    4.5190 hc        1 MOL      0.060179
    107 H48        -0.0810    1.9430    5.5240 hc        1 MOL      0.060179
    108 H49         0.5420    1.0050    4.0830 hc        1 MOL      0.060179
    109 N10        -1.5730    2.2610    0.1720 n         1 MOL     -0.256608
    110 C35        -2.7980    2.5330   -0.6150 c3        1 MOL      0.154559
    111 C36        -4.0250    2.0990    0.1810 c         1 MOL      0.450573
    112 O17        -4.0250    1.2190    1.0480 o         1 MOL     -0.319118
    113 C37        -2.7110    1.8830   -2.0510 c3        1 MOL     -0.378160
    114 C38        -3.9290    2.2620   -2.8380 c         1 MOL      0.725560
    115 N11        -4.0550    3.4620   -3.2390 n         1 MOL     -0.739362
    116 O18        -4.8260    1.4950   -3.0730 o         1 MOL     -0.558883
    117 H50        -1.0620    1.3970    0.0660 hn        1 MOL      0.207534
    118 H51        -2.8810    3.5800   -0.8870 h1        1 MOL      0.021426
    119 H52        -2.6720    0.7970   -1.9030 hc        1 MOL      0.134417
    120 H53        -1.7420    2.1260   -2.4900 hc        1 MOL      0.134417
    121 H54        -3.4150    4.1700   -2.9160 hn        1 MOL      0.351107
    122 H55        -4.9100    3.7350   -3.7010 hn        1 MOL      0.351107
    123 N12        -5.2370    2.5240   -0.2720 n         1 MOL     -0.570959
    124 C39        -6.5940    1.9230    0.1520 c3        1 MOL      0.178504
    125 C40        -6.7640    0.3890    0.0080 c         1 MOL      0.765964
    126 O19        -7.1260   -0.2720    1.0130 o         1 MOL     -0.589052
    127 C41        -7.6720    2.7030   -0.7100 c3        1 MOL     -0.039487
    128 C42        -9.1340    2.2420   -0.4910 ca        1 MOL     -0.213466
    129 C43        -9.5350    2.0950    0.8220 ca        1 MOL     -0.006854
    130 C44        -9.9130    1.7350   -1.5090 ca        1 MOL     -0.006854
    131 C45       -10.8830    1.7630    1.1140 ca        1 MOL     -0.341163
    132 C46       -11.1940    1.2720   -1.2620 ca        1 MOL     -0.341163
    133 C47       -11.6920    1.2740    0.0850 ca        1 MOL      0.428789
    134 O20       -12.9790    0.8760    0.3140 oh        1 MOL     -0.527088
    135 H56        -5.1750    3.2120   -1.0060 hn        1 MOL      0.234098
    136 H57        -6.7590    2.1290    1.2130 h1        1 MOL      0.021836
    137 H58        -7.3920    2.5900   -1.7520 hc        1 MOL      0.046103
    138 H59        -7.5490    3.7660   -0.5420 hc        1 MOL      0.046103
    139 H60        -9.0140    2.5470    1.6580 ha        1 MOL      0.111735
    140 H61        -9.5880    1.6100   -2.5230 ha        1 MOL      0.111735
    141 H62       -11.2990    1.8920    2.0940 ha        1 MOL      0.151992
    142 H63       -11.8840    0.9000   -2.0010 ha        1 MOL      0.151992
    143 H64       -13.5210    0.9050   -0.4810 ho        1 MOL      0.358335
    144 N13        -6.1790   -0.0840   -1.1270 n         1 MOL     -0.570558
    145 C48        -6.1240   -1.5270   -1.3800 c3        1 MOL     -0.078384
    146 C49        -5.2710   -2.3270   -0.3450 c         1 MOL      0.333271
    147 O21        -5.5560   -3.4990   -0.0990 o         1 MOL     -0.509032
    148 C50        -5.8530   -1.8800   -2.8540 c3        1 MOL      0.258793
    149 C51        -6.1770   -3.2500   -3.3450 c3        1 MOL     -0.278635
    150 C52        -5.6190   -3.5300   -4.7170 c         1 MOL      0.692117
    151 O22        -4.4060   -3.8410   -4.8170 o         1 MOL     -0.736893
    152 O23        -6.3450   -3.2660   -5.7220 o         1 MOL     -0.736893
    153 H65        -5.7890    0.5850   -1.7850 hn        1 MOL      0.261136
    154 H66        -7.1420   -1.8520   -1.1580 h1        1 MOL      0.098791
    155 H67        -4.8050   -1.7510   -3.1110 hc        1 MOL     -0.013581
    156 H68        -6.4300   -1.2170   -3.4970 hc        1 MOL     -0.013581
    157 H69        -7.2590   -3.3760   -3.2450 hc        1 MOL      0.020288
    158 H70        -5.7830   -4.0250   -2.6910 hc        1 MOL      0.020288
    159 N14        -4.2580   -1.7340    0.2170 n         1 MOL     -0.094217
    160 C53        -3.5280   -2.2540    1.3390 c3        1 MOL     -0.025800
    161 C54        -4.1860   -2.0460    2.7090 c         1 MOL      0.394706
    162 O24        -4.2330   -2.9550    3.5590 o         1 MOL     -0.564345
    163 C55        -2.0530   -1.7540    1.4100 c3        1 MOL      0.183133
    164 C56        -1.3250   -1.9210    0.0300 c3        1 MOL     -0.289380
    165 C57         0.0380   -1.1740   -0.0990 c         1 MOL      0.881616
    166 O25         1.0230   -1.8570   -0.2950 o         1 MOL     -0.780689
    167 O26         0.0620    0.0480   -0.1480 o         1 MOL     -0.780689
    168 H71        -4.0960   -0.7450    0.0350 hn        1 MOL      0.138694
    169 H72        -3.4130   -3.3310    1.2230 h1        1 MOL      0.084085
    170 H73        -1.5560   -2.3120    2.2050 hc        1 MOL     -0.022349
    171 H74        -2.0970   -0.7040    1.6910 hc        1 MOL     -0.022349
    172 H75        -1.9320   -1.5840   -0.8110 hc        1 MOL      0.076261
    173 H76        -1.2160   -2.9920   -0.1780 hc        1 MOL      0.076261
    174 N15        -4.9150   -0.9390    2.9730 n         1 MOL      0.057570
    175 C58        -5.6650   -0.7430    4.1720 c3        1 MOL     -0.299207
    176 H77        -5.0030   -0.3820    4.9590 h1        1 MOL      0.092898
    177 H78        -6.4510   -0.0090    3.9940 h1        1 MOL      0.092898
    178 H79        -6.1120   -1.6880    4.4790 h1        1 MOL      0.092898
    179 H80        -4.9010   -0.1870    2.2970 hn        1 MOL      0.032685
    180 Ca1         2.4090    0.1500   -1.3300 Ca        1 MOL      1.785038
    181 O27         1.0950    0.3780   -3.6510 oh        1 MOL     -0.865251
    182 H81         1.8010    0.1960   -4.2810 ho        1 MOL      0.423038
    183 H82         0.3390    0.5800   -4.1980 ho        1 MOL      0.423038
@<TRIPOS>BOND
     1    1    2 1   
     2    1    4 1   
     3    1    5 1   
     4    1    6 1   
     5    2    3 2   
     6    2    7 1   
     7    7    8 1   
     8    7   15 1   
     9    8    9 1   
    10    8   11 1   
    11    8   16 1   
    12    9   10 2   
    13    9   19 1   
    14   11   12 1   
    15   11   17 1   
    16   11   18 1   
    17   12   13 1   
    18   12   14 1   
    19   19   20 1   
    20   19   27 1   
    21   20   21 1   
    22   20   23 1   
    23   20   28 1   
    24   21   22 2   
    25   21   38 1   
    26   23   24 1   
    27   23   25 1   
    28   23   29 1   
    29   24   26 1   
    30   24   30 1   
    31   24   31 1   
    32   25   32 1   
    33   25   33 1   
    34   25   34 1   
    35   26   35 1   
    36   26   36 1   
    37   26   37 1   
    38   38   39 1   
    39   38   46 1   
    40   39   40 1   
    41   39   42 1   
    42   39   47 1   
    43   40   41 2   
    44   40   50 1   
    45   42   43 1   
    46   42   48 1   
    47   42   49 1   
    48   43   44 1   
    49   43   45 1   
    50   50   51 1   
    51   50   54 1   
    52   51   52 1   
    53   51   55 1   
    54   51   56 1   
    55   52   53 2   
    56   52   57 1   
    57   57   58 1   
    58   57   65 1   
    59   58   59 1   
    60   58   61 1   
    61   58   66 1   
    62   59   60 2   
    63   59   69 1   
    64   61   62 1   
    65   61   67 1   
    66   61   68 1   
    67   62   63 1   
    68   62   64 1   
    69   69   70 1   
    70   69   73 1   
    71   70   71 1   
    72   70   74 1   
    73   70   75 1   
    74   71   72 2   
    75   71   76 1   
    76   76   77 1   
    77   76   85 1   
    78   77   78 1   
    79   77   80 1   
    80   77   86 1   
    81   78   79 2   
    82   78   93 1   
    83   80   81 1   
    84   80   87 1   
    85   80   88 1   
    86   81   82 1   
    87   81   89 1   
    88   81   90 1   
    89   82   83 1   
    90   82   84 2   
    91   83   91 1   
    92   83   92 1   
    93   93   94 1   
    94   93  100 1   
    95   94   95 1   
    96   94   97 1   
    97   94  101 1   
    98   95   96 2   
    99   95  109 1   
   100   97   98 1   
   101   97   99 1   
   102   97  102 1   
   103   98  103 1   
   104   98  104 1   
   105   98  105 1   
   106   99  106 1   
   107   99  107 1   
   108   99  108 1   
   109  109  110 1   
   110  109  117 1   
   111  110  111 1   
   112  110  113 1   
   113  110  118 1   
   114  111  112 2   
   115  111  123 1   
   116  113  114 1   
   117  113  119 1   
   118  113  120 1   
   119  114  115 1   
   120  114  116 2   
   121  115  121 1   
   122  115  122 1   
   123  123  124 1   
   124  123  135 1   
   125  124  125 1   
   126  124  127 1   
   127  124  136 1   
   128  125  126 2   
   129  125  144 1   
   130  127  128 1   
   131  127  137 1   
   132  127  138 1   
   133  128  129 ar  
   134  128  130 ar  
   135  129  131 ar  
   136  129  139 1   
   137  130  132 ar  
   138  130  140 1   
   139  131  133 ar  
   140  131  141 1   
   141  132  133 ar  
   142  132  142 1   
   143  133  134 1   
   144  134  143 1   
   145  144  145 1   
   146  144  153 1   
   147  145  146 1   
   148  145  148 1   
   149  145  154 1   
   150  146  147 2   
   151  146  159 1   
   152  148  149 1   
   153  148  155 1   
   154  148  156 1   
   155  149  150 1   
   156  149  157 1   
   157  149  158 1   
   158  150  151 1   
   159  150  152 1   
   160  159  160 1   
   161  159  168 1   
   162  160  161 1   
   163  160  163 1   
   164  160  169 1   
   165  161  162 2   
   166  161  174 1   
   167  163  164 1   
   168  163  170 1   
   169  163  171 1   
   170  164  165 1   
   171  164  172 1   
   172  164  173 1   
   173  165  166 1   
   174  165  167 1   
   175  174  175 1   
   176  174  179 1   
   177  175  176 1   
   178  175  177 1   
   179  175  178 1   
   180  181  182 1   
   181  181  183 1   
@<TRIPOS>SUBSTRUCTURE
     1 MOL         1 TEMP              0 ****  ****    0 ROOT
