@<TRIPOS>MOLECULE
MOL
  186   183     1     0     0
SMALL
resp


@<TRIPOS>ATOM
      1 C1          0.7510   -1.1640    6.4860 c3        1 MOL     -0.306650
      2 C2          1.0300   -1.2970    4.9270 c         1 MOL      0.798900
      3 O1          0.2360   -1.8440    4.2510 o         1 MOL     -0.595844
      4 H1          1.6360   -1.4750    7.0410 hc        1 MOL      0.064563
      5 H2          0.5190   -0.1270    6.7270 hc        1 MOL      0.064563
      6 H3         -0.0910   -1.7980    6.7600 hc        1 MOL      0.064563
      7 N1          2.2690   -1.0270    4.4310 n         1 MOL     -0.726628
      8 C3          2.7270   -1.2530    3.0910 c3        1 MOL      0.355201
      9 C4          2.9720   -2.7900    2.8590 c         1 MOL      0.474003
     10 O2          3.8260   -3.3450    3.5510 o         1 MOL     -0.595622
     11 C5          3.9390   -0.3600    2.8250 c3        1 MOL     -0.174211
     12 C6          4.6790   -0.6820    1.4980 c         1 MOL      0.714105
     13 O3          3.9640   -0.9710    0.4900 o         1 MOL     -0.657922
     14 O4          5.8990   -0.6730    1.4770 o         1 MOL     -0.657922
     15 H4          2.9040   -0.5770    5.0780 hn        1 MOL      0.312967
     16 H5          1.9540   -0.9980    2.3660 h1        1 MOL     -0.036783
     17 H6          4.6440   -0.4190    3.6420 hc        1 MOL      0.008365
     18 H7          3.5080    0.6300    2.6940 hc        1 MOL      0.008365
     19 N2          2.3420   -3.3180    1.8250 n         1 MOL     -0.086530
     20 C7          2.4300   -4.7770    1.4770 c3        1 MOL     -0.336302
     21 C8          3.5220   -5.1690    0.4490 c         1 MOL      0.565022
     22 O5          3.7430   -6.3710    0.2950 o         1 MOL     -0.607928
     23 C9          1.0970   -5.2550    0.9260 c3        1 MOL      0.216031
     24 C10         0.9010   -4.9960   -0.5870 c3        1 MOL     -0.022797
     25 C11        -0.0670   -4.6910    1.7500 c3        1 MOL     -0.171773
     26 C12        -0.4360   -5.6540   -1.0300 c3        1 MOL     -0.309265
     27 H8          1.8840   -2.7280    1.1380 hn        1 MOL      0.231371
     28 H9          2.5780   -5.3430    2.3960 h1        1 MOL      0.136983
     29 H10         1.0780   -6.3200    1.1320 hc        1 MOL     -0.003348
     30 H11         1.7390   -5.3940   -1.1590 hc        1 MOL      0.066657
     31 H12         0.9470   -3.9210   -0.7630 hc        1 MOL      0.066657
     32 H13        -0.8260   -5.4230    1.4740 hc        1 MOL      0.039084
     33 H14         0.0720   -4.7790    2.8280 hc        1 MOL      0.039084
     34 H15        -0.3710   -3.6850    1.4870 hc        1 MOL      0.039084
     35 H16        -0.5540   -6.6720   -0.6560 hc        1 MOL      0.075049
     36 H17        -1.2460   -5.0420   -0.6410 hc        1 MOL      0.075049
     37 H18        -0.3570   -5.6010   -2.1230 hc        1 MOL      0.075049
     38 N3          4.1320   -4.2660   -0.2700 n         1 MOL     -0.380654
     39 C13         5.0270   -4.5550   -1.3740 c3        1 MOL      0.035990
     40 C14         6.3870   -3.6690   -1.3890 c         1 MOL      0.346026
     41 O6          7.1220   -3.7770   -2.4000 o         1 MOL     -0.529076
     42 C15         4.2250   -4.3460   -2.6820 c3        1 MOL     -0.135185
     43 C16         3.6460   -3.0160   -3.0670 c         1 MOL      0.742336
     44 O7          3.0710   -2.8640   -4.1430 o         1 MOL     -0.699947
     45 O8          3.6240   -2.1180   -2.1720 o         1 MOL     -0.699947
     46 H19         3.7560   -3.3430   -0.1230 hn        1 MOL      0.139242
     47 H20         5.2740   -5.6240   -1.3840 h1        1 MOL      0.095880
     48 H21         3.3470   -4.9670   -2.5250 hc        1 MOL      0.027952
     49 H22         4.8220   -4.7510   -3.5030 hc        1 MOL      0.027952
     50 N4          6.6010   -2.8710   -0.4070 n         1 MOL     -0.134607
     51 C17         7.8440   -2.2070   -0.1760 c3        1 MOL     -0.510183
     52 C18         8.1850   -0.8720   -0.8560 c         1 MOL      0.570160
     53 O9          9.3410   -0.3680   -0.8310 o         1 MOL     -0.600299
     54 H23         5.9220   -2.7530    0.3400 hn        1 MOL      0.248456
     55 H24         8.5440   -2.9840   -0.4820 h1        1 MOL      0.194374
     56 H25         7.8790   -2.0630    0.9070 h1        1 MOL      0.194374
     57 N5          7.1250   -0.1970   -1.4220 n         1 MOL     -0.279013
     58 C19         7.3510    1.1620   -1.9520 c3        1 MOL      0.108834
     59 C20         7.2730    2.1570   -0.7370 c         1 MOL      0.311727
     60 O10         7.5940    3.3330   -0.9820 o         1 MOL     -0.550365
     61 C21         6.3380    1.5540   -2.9810 c3        1 MOL     -0.184802
     62 C22         4.9000    1.3300   -2.5310 c         1 MOL      0.726857
     63 O11         4.0730    0.6830   -3.2950 o         1 MOL     -0.690652
     64 O12         4.4910    1.6730   -1.3720 o         1 MOL     -0.690652
     65 H26         6.1830   -0.5190   -1.2850 hn        1 MOL      0.221960
     66 H27         8.2860    1.1850   -2.5150 h1        1 MOL      0.090304
     67 H28         6.5120    0.7710   -3.7160 hc        1 MOL      0.036855
     68 H29         6.4760    2.5530   -3.4080 hc        1 MOL      0.036855
     69 N6          6.8480    1.7340    0.4640 n         1 MOL     -0.041308
     70 C23         6.9700    2.6700    1.5990 c3        1 MOL     -0.062279
     71 C24         5.7820    3.5980    1.7700 c         1 MOL      0.526055
     72 O13         5.7770    4.4980    2.5880 o         1 MOL     -0.594447
     73 H30         6.6980    0.7690    0.7230 hn        1 MOL      0.176168
     74 H31         7.9390    3.1620    1.5540 h1        1 MOL      0.041802
     75 H32         7.0020    2.0960    2.5200 h1        1 MOL      0.041802
     76 N7          4.6120    3.3740    1.0670 n         1 MOL     -0.308148
     77 C25         3.3740    4.1790    0.9540 c3        1 MOL      0.128641
     78 C26         2.1940    3.1760    1.0550 c         1 MOL      0.466806
     79 O14         2.4540    1.9620    0.8690 o         1 MOL     -0.511838
     80 C27         3.3920    4.9240   -0.3940 c3        1 MOL     -0.217144
     81 C28         4.5760    5.9390   -0.5020 c3        1 MOL     -0.037164
     82 C29         4.6320    6.7860   -1.7380 c         1 MOL      0.677799
     83 N8          4.8750    8.0410   -1.6170 n         1 MOL     -0.777896
     84 O15         4.3610    6.2690   -2.8130 o         1 MOL     -0.568989
     85 H33         4.5130    2.4600    0.6460 hn        1 MOL      0.225006
     86 H34         3.3310    4.8980    1.7740 h1        1 MOL      0.034230
     87 H35         2.4540    5.4800   -0.4030 hc        1 MOL      0.061864
     88 H36         3.2480    4.2330   -1.2260 hc        1 MOL      0.061864
     89 H37         5.5440    5.4450   -0.4710 hc        1 MOL      0.019041
     90 H38         4.5290    6.5350    0.4090 hc        1 MOL      0.019041
     91 H39         5.1220    8.4460   -0.7230 hn        1 MOL      0.338575
     92 H40         4.6150    8.6560   -2.3860 hn        1 MOL      0.338575
     93 N9          0.9620    3.6610    1.3530 n         1 MOL     -0.537871
     94 C30        -0.2240    2.7860    1.4410 c3        1 MOL     -0.015633
     95 C31        -1.4440    3.2940    0.6190 c         1 MOL      0.543532
     96 O16        -1.7900    4.4600    0.6930 o         1 MOL     -0.584673
     97 C32        -0.5490    2.7100    2.9780 c3        1 MOL      0.299485
     98 C33        -1.9790    2.4860    3.4600 c3        1 MOL     -0.226879
     99 C34         0.3510    1.6910    3.6110 c3        1 MOL     -0.226879
    100 H41         0.8570    4.6410    1.5260 hn        1 MOL      0.312876
    101 H42         0.0940    1.7830    1.1550 h1        1 MOL      0.136353
    102 H43        -0.3120    3.6950    3.3860 hc        1 MOL     -0.044480
    103 H44        -2.1150    2.9440    4.4380 hc        1 MOL      0.034968
    104 H45        -2.6560    3.0630    2.8340 hc        1 MOL      0.034968
    105 H46        -2.2260    1.4240    3.5020 hc        1 MOL      0.034968
    106 H47         0.0640    1.6110    4.6570 hc        1 MOL      0.034968
    107 H48         0.2150    0.7810    3.0160 hc        1 MOL      0.034968
    108 H49         1.3930    1.9980    3.7040 hc        1 MOL      0.034968
    109 N10        -2.0530    2.4100   -0.1460 n         1 MOL     -0.507546
    110 C35        -3.3180    2.6520   -0.9140 c3        1 MOL      0.383809
    111 C36        -4.5360    2.2650   -0.0240 c         1 MOL      0.223422
    112 O17        -4.3240    1.5160    1.0000 o         1 MOL     -0.332535
    113 C37        -3.1210    1.9650   -2.2360 c3        1 MOL     -0.439901
    114 C38        -4.3630    2.1060   -3.1120 c         1 MOL      0.668012
    115 N11        -4.9440    3.2480   -3.4170 n         1 MOL     -0.775284
    116 O18        -4.9270    1.0570   -3.3640 o         1 MOL     -0.513954
    117 H50        -1.6320    1.4950   -0.1980 hn        1 MOL      0.358461
    118 H51        -3.4530    3.7130   -1.1140 h1        1 MOL     -0.016215
    119 H52        -2.9090    0.9040   -2.0870 hc        1 MOL      0.144148
    120 H53        -2.3220    2.5240   -2.7170 hc        1 MOL      0.144148
    121 H54        -4.5870    4.1620   -3.1490 hn        1 MOL      0.354950
    122 H55        -5.7350    3.1640   -4.0410 hn        1 MOL      0.354950
    123 N12        -5.7560    2.6090   -0.3980 n         1 MOL     -0.327281
    124 C39        -7.0180    2.0330    0.0050 c3        1 MOL      0.173843
    125 C40        -6.9690    0.5300    0.0760 c         1 MOL      0.757368
    126 O19        -7.2440    0.1000    1.1590 o         1 MOL     -0.612921
    127 C41        -8.0700    2.4660   -1.0590 c3        1 MOL     -0.162965
    128 C42        -9.4290    1.9620   -0.6060 ca        1 MOL      0.126434
    129 C43       -10.0770    2.5170    0.4530 ca        1 MOL     -0.242698
    130 C44       -10.0370    0.9190   -1.3140 ca        1 MOL     -0.242698
    131 C45       -11.3300    2.0020    0.8490 ca        1 MOL     -0.214236
    132 C46       -11.2490    0.3670   -0.9040 ca        1 MOL     -0.214236
    133 C47       -11.9540    0.9600    0.1960 ca        1 MOL      0.337142
    134 O20       -13.1800    0.5370    0.6780 oh        1 MOL     -0.564765
    135 H56        -5.8490    3.3210   -1.1060 hn        1 MOL      0.190580
    136 H57        -7.2270    2.5040    0.9690 h1        1 MOL      0.018108
    137 H58        -7.7820    2.0490   -2.0230 hc        1 MOL      0.038174
    138 H59        -8.1120    3.5540   -1.0770 hc        1 MOL      0.038174
    139 H60        -9.5790    3.2640    1.0570 ha        1 MOL      0.151534
    140 H61        -9.5140    0.4890   -2.1560 ha        1 MOL      0.151534
    141 H62       -11.8160    2.3780    1.7330 ha        1 MOL      0.139372
    142 H63       -11.5620   -0.5360   -1.3960 ha        1 MOL      0.139372
    143 H64       -13.6890   -0.0700    0.1400 ho        1 MOL      0.401416
    144 N13        -6.6600   -0.1850   -0.9460 n         1 MOL     -0.354597
    145 C48        -6.5250   -1.6700   -0.8730 c3        1 MOL     -0.074692
    146 C49        -5.6800   -2.0880    0.3220 c         1 MOL      0.567146
    147 O21        -6.1600   -2.9230    1.0770 o         1 MOL     -0.550158
    148 C50        -5.9870   -2.2450   -2.1410 c3        1 MOL      0.141317
    149 C51        -7.0300   -2.6260   -3.2210 c3        1 MOL     -0.139432
    150 C52        -6.3360   -3.4400   -4.3030 c         1 MOL      0.712471
    151 O22        -6.3150   -3.0030   -5.4690 o         1 MOL     -0.736325
    152 O23        -5.9920   -4.5890   -4.0230 o         1 MOL     -0.736325
    153 H65        -6.3330    0.2560   -1.7930 hn        1 MOL      0.228960
    154 H66        -7.5060   -2.0860   -0.7010 h1        1 MOL      0.071325
    155 H67        -5.5380   -3.1920   -1.8520 hc        1 MOL     -0.019241
    156 H68        -5.2070   -1.6340   -2.6010 hc        1 MOL     -0.019241
    157 H69        -7.4800   -1.7160   -3.6360 hc        1 MOL     -0.018661
    158 H70        -7.7820   -3.2190   -2.7030 hc        1 MOL     -0.018661
    159 N14        -4.5720   -1.4710    0.6830 n         1 MOL     -0.365827
    160 C53        -3.7000   -1.8800    1.7900 c3        1 MOL     -0.056780
    161 C54        -4.1770   -1.4960    3.1490 c         1 MOL      0.410301
    162 O24        -4.0950   -2.2390    4.1640 o         1 MOL     -0.543055
    163 C55        -2.2730   -1.2320    1.5660 c3        1 MOL      0.031548
    164 C56        -1.6640   -1.4620    0.0860 c3        1 MOL      0.013765
    165 C57        -0.2620   -0.8280   -0.1000 c         1 MOL      0.846598
    166 O25         0.7170   -1.4580    0.2110 o         1 MOL     -0.841723
    167 O26        -0.1080    0.2600   -0.7460 o         1 MOL     -0.841723
    168 H71        -4.2640   -0.6500    0.1730 hn        1 MOL      0.182338
    169 H72        -3.6110   -2.9650    1.6740 h1        1 MOL      0.114072
    170 H73        -1.6280   -1.7480    2.2840 hc        1 MOL      0.018918
    171 H74        -2.4150   -0.1540    1.5560 hc        1 MOL      0.018918
    172 H75        -2.3510   -0.9780   -0.6210 hc        1 MOL     -0.029436
    173 H76        -1.5870   -2.4930   -0.2340 hc        1 MOL     -0.029436
    174 N15        -4.8800   -0.3170    3.2040 n         1 MOL      0.115190
    175 C58        -5.5380    0.0460    4.4510 c3        1 MOL     -0.415526
    176 H77        -4.8340   -0.0620    5.2770 h1        1 MOL      0.118788
    177 H78        -5.8770    1.0800    4.3960 h1        1 MOL      0.118788
    178 H79        -6.3930   -0.6090    4.6150 h1        1 MOL      0.118788
    179 H80        -5.0590    0.2850    2.4230 hn        1 MOL      0.016302
    180 Ca1         2.4600    0.0380   -1.2790 Ca        1 MOL      1.720372
    181 O27         1.0610   -1.1190   -3.4440 oh        1 MOL     -0.823163
    182 H81         1.6920   -1.7780   -3.7220 ho        1 MOL      0.391977
    183 H82         0.2530   -1.5990   -3.2850 ho        1 MOL      0.391977
    184 O28         1.5050    2.2330   -2.4610 oh        1 MOL     -0.823163
    185 H83         1.5710    3.1540   -2.7360 ho        1 MOL      0.391977
    186 H84         0.5680    2.0950   -2.3360 ho        1 MOL      0.391977
@<TRIPOS>BOND
     1    1    2 1   
     2    1    4 1   
     3    1    5 1   
     4    1    6 1   
     5    2    3 2   
     6    2    7 1   
     7    7    8 1   
     8    7   15 1   
     9    8    9 1   
    10    8   11 1   
    11    8   16 1   
    12    9   10 2   
    13    9   19 1   
    14   11   12 1   
    15   11   17 1   
    16   11   18 1   
    17   12   13 1   
    18   12   14 1   
    19   19   20 1   
    20   19   27 1   
    21   20   21 1   
    22   20   23 1   
    23   20   28 1   
    24   21   22 2   
    25   21   38 1   
    26   23   24 1   
    27   23   25 1   
    28   23   29 1   
    29   24   26 1   
    30   24   30 1   
    31   24   31 1   
    32   25   32 1   
    33   25   33 1   
    34   25   34 1   
    35   26   35 1   
    36   26   36 1   
    37   26   37 1   
    38   38   39 1   
    39   38   46 1   
    40   39   40 1   
    41   39   42 1   
    42   39   47 1   
    43   40   41 2   
    44   40   50 1   
    45   42   43 1   
    46   42   48 1   
    47   42   49 1   
    48   43   44 1   
    49   43   45 1   
    50   50   51 1   
    51   50   54 1   
    52   51   52 1   
    53   51   55 1   
    54   51   56 1   
    55   52   53 2   
    56   52   57 1   
    57   57   58 1   
    58   57   65 1   
    59   58   59 1   
    60   58   61 1   
    61   58   66 1   
    62   59   60 2   
    63   59   69 1   
    64   61   62 1   
    65   61   67 1   
    66   61   68 1   
    67   62   63 1   
    68   62   64 1   
    69   69   70 1   
    70   69   73 1   
    71   70   71 1   
    72   70   74 1   
    73   70   75 1   
    74   71   72 2   
    75   71   76 1   
    76   76   77 1   
    77   76   85 1   
    78   77   78 1   
    79   77   80 1   
    80   77   86 1   
    81   78   79 2   
    82   78   93 1   
    83   80   81 1   
    84   80   87 1   
    85   80   88 1   
    86   81   82 1   
    87   81   89 1   
    88   81   90 1   
    89   82   83 1   
    90   82   84 2   
    91   83   91 1   
    92   83   92 1   
    93   93   94 1   
    94   93  100 1   
    95   94   95 1   
    96   94   97 1   
    97   94  101 1   
    98   95   96 2   
    99   95  109 1   
   100   97   98 1   
   101   97   99 1   
   102   97  102 1   
   103   98  103 1   
   104   98  104 1   
   105   98  105 1   
   106   99  106 1   
   107   99  107 1   
   108   99  108 1   
   109  109  110 1   
   110  109  117 1   
   111  110  111 1   
   112  110  113 1   
   113  110  118 1   
   114  111  112 2   
   115  111  123 1   
   116  113  114 1   
   117  113  119 1   
   118  113  120 1   
   119  114  115 1   
   120  114  116 2   
   121  115  121 1   
   122  115  122 1   
   123  123  124 1   
   124  123  135 1   
   125  124  125 1   
   126  124  127 1   
   127  124  136 1   
   128  125  126 2   
   129  125  144 1   
   130  127  128 1   
   131  127  137 1   
   132  127  138 1   
   133  128  129 ar  
   134  128  130 ar  
   135  129  131 ar  
   136  129  139 1   
   137  130  132 ar  
   138  130  140 1   
   139  131  133 ar  
   140  131  141 1   
   141  132  133 ar  
   142  132  142 1   
   143  133  134 1   
   144  134  143 1   
   145  144  145 1   
   146  144  153 1   
   147  145  146 1   
   148  145  148 1   
   149  145  154 1   
   150  146  147 2   
   151  146  159 1   
   152  148  149 1   
   153  148  155 1   
   154  148  156 1   
   155  149  150 1   
   156  149  157 1   
   157  149  158 1   
   158  150  151 1   
   159  150  152 1   
   160  159  160 1   
   161  159  168 1   
   162  160  161 1   
   163  160  163 1   
   164  160  169 1   
   165  161  162 2   
   166  161  174 1   
   167  163  164 1   
   168  163  170 1   
   169  163  171 1   
   170  164  165 1   
   171  164  172 1   
   172  164  173 1   
   173  165  166 1   
   174  165  167 1   
   175  174  175 1   
   176  174  179 1   
   177  175  176 1   
   178  175  177 1   
   179  175  178 1   
   180  181  182 1   
   181  181  183 1   
   182  184  185 1   
   183  184  186 1   
@<TRIPOS>SUBSTRUCTURE
     1 MOL         1 TEMP              0 ****  ****    0 ROOT
