@<TRIPOS>MOLECULE
MOL
  175   173     1     0     0
SMALL
resp


@<TRIPOS>ATOM
      1 C1          0.9020    3.6140    5.6000 c3        1 MOL     -0.408457
      2 C2          0.5250    3.6880    4.1140 c         1 MOL      0.718274
      3 O1          1.3320    4.0170    3.2790 o         1 MOL     -0.542819
      4 H1         -0.0010    3.6870    6.2070 hc        1 MOL      0.098741
      5 H2          1.3990    2.6650    5.8020 hc        1 MOL      0.098741
      6 H3          1.5740    4.4360    5.8470 hc        1 MOL      0.098741
      7 N1         -0.7530    3.4900    3.8520 n         1 MOL     -0.591733
      8 C3         -1.4490    3.4200    2.6300 c3        1 MOL     -0.025901
      9 C4         -1.2430    4.6030    1.7080 c         1 MOL      0.832761
     10 O2         -1.1560    5.7720    2.2020 o         1 MOL     -0.609341
     11 C5         -2.8730    3.1310    3.0210 c3        1 MOL     -0.186818
     12 C6         -3.7350    2.8640    1.7620 c         1 MOL      0.661347
     13 O3         -3.3270    2.1480    0.8690 o         1 MOL     -0.654625
     14 O4         -4.9430    3.1590    1.7860 o         1 MOL     -0.654625
     15 H4         -1.3600    3.4220    4.6530 hn        1 MOL      0.315242
     16 H5         -1.0170    2.5720    2.1010 h1        1 MOL      0.043488
     17 H6         -3.4170    3.8650    3.5980 hc        1 MOL      0.047458
     18 H7         -3.0090    2.2700    3.6820 hc        1 MOL      0.047458
     19 N2         -1.4760    4.3660    0.4320 n         1 MOL     -0.804599
     20 C7         -1.5730    5.3960   -0.6180 c3        1 MOL      0.305431
     21 C8         -2.7020    5.1210   -1.7560 c         1 MOL      0.329125
     22 O5         -3.0450    6.1190   -2.4890 o         1 MOL     -0.561167
     23 C9         -0.1850    5.7100   -1.1430 c3        1 MOL     -0.315273
     24 H8         -1.4540    3.4180    0.0890 hn        1 MOL      0.506892
     25 H9         -1.8720    6.3500   -0.1910 h1        1 MOL      0.033299
     26 H10         0.4040    5.7240   -0.2200 hc        1 MOL      0.078882
     27 H11         0.1360    4.9550   -1.8650 hc        1 MOL      0.078882
     28 H12        -0.1220    6.6760   -1.6460 hc        1 MOL      0.078882
     29 N3         -3.2400    3.9010   -1.7230 n         1 MOL     -0.103339
     30 C10        -4.3390    3.6290   -2.6410 c3        1 MOL      0.071485
     31 C11        -5.6150    3.0650   -2.1240 c         1 MOL      0.311618
     32 O6         -6.6200    3.1730   -2.8640 o         1 MOL     -0.554458
     33 C12        -3.7300    2.6470   -3.6920 c3        1 MOL     -0.174922
     34 C13        -3.0050    1.4760   -3.1270 c         1 MOL      0.707189
     35 O7         -2.1040    0.9770   -3.7780 o         1 MOL     -0.683543
     36 O8         -3.2060    1.1570   -1.9410 o         1 MOL     -0.683543
     37 H13        -2.9670    3.1640   -1.0890 hn        1 MOL      0.132776
     38 H14        -4.6640    4.5360   -3.1530 h1        1 MOL      0.088112
     39 H15        -3.1450    3.2350   -4.3860 hc        1 MOL      0.035751
     40 H16        -4.5250    2.2580   -4.3220 hc        1 MOL      0.035751
     41 N4         -5.7170    2.5360   -0.8890 n         1 MOL     -0.042442
     42 C14        -6.9050    1.8730   -0.3260 c3        1 MOL     -0.177618
     43 C15        -7.2490    0.4740   -0.9300 c         1 MOL      0.407421
     44 O9         -8.3520   -0.0370   -0.7410 o         1 MOL     -0.602347
     45 H17        -4.8880    2.4890   -0.3100 hn        1 MOL      0.034215
     46 H18        -7.8060    2.4850   -0.4020 h1        1 MOL      0.103548
     47 H19        -6.7450    1.7550    0.7490 h1        1 MOL      0.103548
     48 N5         -6.3550   -0.1360   -1.5660 n         1 MOL     -0.057238
     49 C16        -6.4710   -1.4820   -2.1510 c3        1 MOL     -0.141101
     50 C17        -6.6980   -2.6420   -1.1240 c         1 MOL      0.508000
     51 O10        -7.2260   -3.7340   -1.5140 o         1 MOL     -0.558353
     52 C18        -5.2140   -1.6860   -2.9950 c3        1 MOL     -0.060032
     53 C19        -3.9020   -2.0140   -2.2640 c         1 MOL      0.434593
     54 N6         -2.9330   -2.6250   -2.9310 n         1 MOL     -0.501795
     55 O11        -3.6880   -1.6620   -1.1290 o         1 MOL     -0.566183
     56 H20        -5.4330    0.2670   -1.5740 hn        1 MOL      0.173699
     57 H21        -7.3170   -1.4530   -2.8480 h1        1 MOL      0.123568
     58 H22        -5.0940   -0.8180   -3.6290 hc        1 MOL      0.040080
     59 H23        -5.3680   -2.5320   -3.6700 hc        1 MOL      0.040080
     60 H24        -3.0640   -2.9870   -3.8590 hn        1 MOL      0.306677
     61 H25        -2.0360   -2.6280   -2.4680 hn        1 MOL      0.306677
     62 N7         -6.4760   -2.4260    0.1710 n         1 MOL     -0.195198
     63 C20        -6.7070   -3.4780    1.2520 c3        1 MOL     -0.311891
     64 C21        -5.5220   -4.3830    1.4820 c         1 MOL      0.614223
     65 O12        -5.6720   -5.3450    2.1930 o         1 MOL     -0.585892
     66 H26        -5.9770   -1.6030    0.4780 hn        1 MOL      0.187988
     67 H27        -7.3890   -4.1530    0.7490 h1        1 MOL      0.142086
     68 H28        -7.1300   -2.9890    2.1310 h1        1 MOL      0.142086
     69 N8         -4.3550   -3.9920    1.0390 n         1 MOL     -0.343490
     70 C22        -3.0060   -4.5450    1.2990 c3        1 MOL     -0.028826
     71 C23        -1.8760   -3.5600    1.4090 c         1 MOL      0.434843
     72 O13        -1.9910   -2.4190    0.9710 o         1 MOL     -0.487206
     73 C24        -2.5140   -5.5260    0.2490 c3        1 MOL      0.571053
     74 C25        -3.4950   -6.6590    0.0420 c3        1 MOL     -0.447551
     75 O14        -2.3910   -4.8880   -1.0490 oh        1 MOL     -0.652460
     76 H29        -4.3080   -3.0670    0.6250 hn        1 MOL      0.259112
     77 H30        -3.0150   -5.1190    2.2310 h1        1 MOL      0.050616
     78 H31        -1.6200   -6.0000    0.6600 h1        1 MOL     -0.064276
     79 H32        -1.7270   -4.1840   -0.9990 ho        1 MOL      0.394422
     80 H33        -3.7830   -6.9800    1.0410 hc        1 MOL      0.110503
     81 H34        -4.2860   -6.2380   -0.5920 hc        1 MOL      0.110503
     82 H35        -2.9200   -7.4150   -0.4740 hc        1 MOL      0.110503
     83 N9         -0.7930   -3.9090    2.1010 n         1 MOL     -0.530372
     84 C26         0.4390   -3.0980    2.0330 c3        1 MOL     -0.016457
     85 C27         1.2060   -3.3560    0.7980 c         1 MOL      0.389297
     86 O15         1.3410   -4.4750    0.2860 o         1 MOL     -0.573379
     87 C28         1.2520   -3.2690    3.3280 c3        1 MOL      0.357370
     88 C29         0.3220   -2.8440    4.5370 c3        1 MOL      0.003091
     89 C30         2.5660   -2.4040    3.1690 c3        1 MOL     -0.384240
     90 C31         1.0330   -2.6960    5.9020 c3        1 MOL     -0.129030
     91 H36        -0.8180   -4.7180    2.7040 hn        1 MOL      0.314227
     92 H37         0.3020   -2.0170    2.0410 h1        1 MOL     -0.011979
     93 H38         1.5270   -4.3140    3.4590 hc        1 MOL     -0.051332
     94 H39        -0.4850   -3.5800    4.5630 hc        1 MOL     -0.002799
     95 H40        -0.1130   -1.8490    4.4410 hc        1 MOL     -0.002799
     96 H41         2.3330   -1.3400    3.2600 hc        1 MOL      0.070739
     97 H42         3.1750   -2.6020    4.0550 hc        1 MOL      0.070739
     98 H43         3.0760   -2.6300    2.2300 hc        1 MOL      0.070739
     99 H44         1.7220   -1.8520    5.9830 hc        1 MOL      0.026740
    100 H45         0.2930   -2.6240    6.6950 hc        1 MOL      0.026740
    101 H46         1.5450   -3.6500    6.0050 hc        1 MOL      0.026740
    102 N10         1.7020   -2.3120    0.2120 n         1 MOL     -0.011514
    103 C32         2.4870   -2.2270   -1.0320 c3        1 MOL     -0.045299
    104 C33         3.8600   -1.5890   -0.7910 c         1 MOL      0.365318
    105 O16         3.9960   -0.8030    0.1580 o         1 MOL     -0.339184
    106 C34         1.6530   -1.4580   -2.0940 c3        1 MOL     -0.290654
    107 C35         0.2270   -1.9420   -2.2500 c         1 MOL      0.822703
    108 O17        -0.6290   -1.4830   -1.4940 o         1 MOL     -0.708373
    109 O18        -0.0920   -2.7360   -3.1510 o         1 MOL     -0.708373
    110 H47         1.5000   -1.4190    0.6370 hn        1 MOL      0.164809
    111 H48         2.6620   -3.2370   -1.3960 h1        1 MOL      0.070110
    112 H49         2.0350   -1.4700   -3.1150 hc        1 MOL      0.081380
    113 H50         1.6490   -0.4200   -1.7580 hc        1 MOL      0.081380
    114 N11         4.8650   -1.8220   -1.6780 n         1 MOL     -0.460055
    115 C36         6.3100   -1.5670   -1.4500 c3        1 MOL      0.220437
    116 C37         6.6430   -0.0400   -1.3230 c         1 MOL      0.264280
    117 O19         7.4750    0.2100   -0.4210 o         1 MOL     -0.472413
    118 C38         7.1830   -2.0460   -2.6070 c3        1 MOL     -0.365851
    119 C39         8.7180   -2.1250   -2.1650 ca        1 MOL      0.068522
    120 C40         9.1050   -3.3210   -1.4340 ca        1 MOL     -0.105832
    121 C41         9.6160   -1.0910   -2.4920 ca        1 MOL     -0.105832
    122 C42        10.4480   -3.3630   -1.0290 ca        1 MOL     -0.198212
    123 C43        10.9450   -1.2940   -2.1900 ca        1 MOL     -0.198212
    124 C44        11.3090   -2.3460   -1.3840 ca        1 MOL      0.009806
    125 H51         4.6390   -2.3150   -2.5270 hn        1 MOL      0.291648
    126 H52         6.5390   -2.0680   -0.5180 h1        1 MOL      0.088263
    127 H53         7.1480   -1.3520   -3.4540 hc        1 MOL      0.118710
    128 H54         6.8840   -3.0550   -2.8690 hc        1 MOL      0.118710
    129 H55         8.4030   -4.0540   -1.0750 ha        1 MOL      0.125048
    130 H56         9.2650   -0.1550   -2.9060 ha        1 MOL      0.125048
    131 H57        10.7810   -4.1590   -0.3880 ha        1 MOL      0.125304
    132 H58        11.6540   -0.4860   -2.3510 ha        1 MOL      0.125304
    133 H59        12.3270   -2.4320   -1.0420 ha        1 MOL      0.060935
    134 N12         6.0310    0.9360   -1.9930 n         1 MOL      0.020638
    135 C45         6.2310    2.3440   -1.6930 c3        1 MOL     -0.040637
    136 C46         5.8450    2.7370   -0.2020 c         1 MOL      0.216175
    137 O20         6.5020    3.5250    0.4890 o         1 MOL     -0.476380
    138 C47         5.3650    3.1880   -2.6770 c3        1 MOL      0.070427
    139 C48         4.6520    2.1890   -3.5940 c3        1 MOL     -0.189841
    140 C49         4.9800    0.7940   -2.9900 c3        1 MOL      0.024608
    141 H60         7.2900    2.5230   -1.8900 h1        1 MOL      0.062008
    142 H61         4.6760    3.8360   -2.1350 hc        1 MOL      0.004310
    143 H62         6.0590    3.7430   -3.2970 hc        1 MOL      0.004310
    144 H63         3.5920    2.4150   -3.6720 hc        1 MOL      0.075702
    145 H64         5.1370    2.3900   -4.5450 hc        1 MOL      0.075702
    146 H65         4.0310    0.3900   -2.6410 h1        1 MOL      0.010712
    147 H66         5.3570    0.1340   -3.7780 h1        1 MOL      0.010712
    148 N13         4.7570    2.0620    0.2040 n         1 MOL      0.098000
    149 C50         4.1230    2.2940    1.5170 c3        1 MOL     -0.459447
    150 C51         4.9810    1.6770    2.6190 c         1 MOL      0.598134
    151 O21         5.0850    2.1460    3.7050 o         1 MOL     -0.566214
    152 C52         2.7400    1.6300    1.4740 c3        1 MOL      0.117291
    153 C53         1.8170    2.2030    0.3960 c3        1 MOL     -0.310026
    154 C54         0.5200    1.4490    0.1970 c         1 MOL      0.767888
    155 O22        -0.3680    1.9430   -0.5060 o         1 MOL     -0.717757
    156 O23         0.4290    0.3300    0.7530 o         1 MOL     -0.717757
    157 H67         4.3470    1.4100   -0.4540 hn        1 MOL      0.234547
    158 H68         4.0950    3.3780    1.6080 h1        1 MOL      0.204279
    159 H69         2.2670    1.8380    2.4320 hc        1 MOL      0.028640
    160 H70         2.7360    0.5360    1.5000 hc        1 MOL      0.028640
    161 H71         2.3190    2.2020   -0.5690 hc        1 MOL      0.067897
    162 H72         1.5300    3.1960    0.7620 hc        1 MOL      0.067897
    163 N14         5.7130    0.6020    2.3000 n         1 MOL     -0.126991
    164 C55         6.7820    0.0190    3.1580 c3        1 MOL     -0.222705
    165 H73         7.7560    0.2180    2.7100 h1        1 MOL      0.086485
    166 H74         6.7400    0.4700    4.1490 h1        1 MOL      0.086485
    167 H75         6.6350   -1.0580    3.2410 h1        1 MOL      0.086485
    168 H76         5.4480    0.1810    1.4260 hn        1 MOL      0.079407
    169 Ca1        -2.0140   -0.0610    0.1400 Ca        1 MOL      1.620369
    170 O24        -4.4290   -0.1260    1.2620 oh        1 MOL     -0.764146
    171 H77        -4.7290    0.7850    1.2850 ho        1 MOL      0.387261
    172 H78        -4.8670   -0.5420    2.0020 ho        1 MOL      0.387261
    173 O25        -1.5720   -0.0890    2.8300 oh        1 MOL     -0.764146
    174 H79        -0.6320   -0.2120    2.9200 ho        1 MOL      0.387261
    175 H80        -1.8520    0.2570    3.6830 ho        1 MOL      0.387261
@<TRIPOS>BOND
     1    1    2 1   
     2    1    4 1   
     3    1    5 1   
     4    1    6 1   
     5    2    3 2   
     6    2    7 1   
     7    7    8 1   
     8    7   15 1   
     9    8    9 1   
    10    8   11 1   
    11    8   16 1   
    12    9   10 2   
    13    9   19 1   
    14   11   12 1   
    15   11   17 1   
    16   11   18 1   
    17   12   13 1   
    18   12   14 1   
    19   19   20 1   
    20   19   24 1   
    21   20   21 1   
    22   20   23 1   
    23   20   25 1   
    24   21   22 2   
    25   21   29 1   
    26   23   26 1   
    27   23   27 1   
    28   23   28 1   
    29   29   30 1   
    30   29   37 1   
    31   30   31 1   
    32   30   33 1   
    33   30   38 1   
    34   31   32 2   
    35   31   41 1   
    36   33   34 1   
    37   33   39 1   
    38   33   40 1   
    39   34   35 1   
    40   34   36 1   
    41   41   42 1   
    42   41   45 1   
    43   42   43 1   
    44   42   46 1   
    45   42   47 1   
    46   43   44 2   
    47   43   48 1   
    48   48   49 1   
    49   48   56 1   
    50   49   50 1   
    51   49   52 1   
    52   49   57 1   
    53   50   51 2   
    54   50   62 1   
    55   52   53 1   
    56   52   58 1   
    57   52   59 1   
    58   53   54 1   
    59   53   55 2   
    60   54   60 1   
    61   54   61 1   
    62   62   63 1   
    63   62   66 1   
    64   63   64 1   
    65   63   67 1   
    66   63   68 1   
    67   64   65 2   
    68   64   69 1   
    69   69   70 1   
    70   69   76 1   
    71   70   71 1   
    72   70   73 1   
    73   70   77 1   
    74   71   72 2   
    75   71   83 1   
    76   73   74 1   
    77   73   75 1   
    78   73   78 1   
    79   74   80 1   
    80   74   81 1   
    81   74   82 1   
    82   75   79 1   
    83   83   84 1   
    84   83   91 1   
    85   84   85 1   
    86   84   87 1   
    87   84   92 1   
    88   85   86 2   
    89   85  102 1   
    90   87   88 1   
    91   87   89 1   
    92   87   93 1   
    93   88   90 1   
    94   88   94 1   
    95   88   95 1   
    96   89   96 1   
    97   89   97 1   
    98   89   98 1   
    99   90   99 1   
   100   90  100 1   
   101   90  101 1   
   102  102  103 1   
   103  102  110 1   
   104  103  104 1   
   105  103  106 1   
   106  103  111 1   
   107  104  105 2   
   108  104  114 1   
   109  106  107 1   
   110  106  112 1   
   111  106  113 1   
   112  107  108 1   
   113  107  109 1   
   114  114  115 1   
   115  114  125 1   
   116  115  116 1   
   117  115  118 1   
   118  115  126 1   
   119  116  117 2   
   120  116  134 1   
   121  118  119 1   
   122  118  127 1   
   123  118  128 1   
   124  119  120 ar  
   125  119  121 ar  
   126  120  122 ar  
   127  120  129 1   
   128  121  123 ar  
   129  121  130 1   
   130  122  124 ar  
   131  122  131 1   
   132  123  124 ar  
   133  123  132 1   
   134  124  133 1   
   135  134  135 1   
   136  134  140 1   
   137  135  136 1   
   138  135  138 1   
   139  135  141 1   
   140  136  137 2   
   141  136  148 1   
   142  138  139 1   
   143  138  142 1   
   144  138  143 1   
   145  139  140 1   
   146  139  144 1   
   147  139  145 1   
   148  140  146 1   
   149  140  147 1   
   150  148  149 1   
   151  148  157 1   
   152  149  150 1   
   153  149  152 1   
   154  149  158 1   
   155  150  151 2   
   156  150  163 1   
   157  152  153 1   
   158  152  159 1   
   159  152  160 1   
   160  153  154 1   
   161  153  161 1   
   162  153  162 1   
   163  154  155 1   
   164  154  156 1   
   165  163  164 1   
   166  163  168 1   
   167  164  165 1   
   168  164  166 1   
   169  164  167 1   
   170  170  171 1   
   171  170  172 1   
   172  173  174 1   
   173  173  175 1   
@<TRIPOS>SUBSTRUCTURE
     1 MOL         1 TEMP              0 ****  ****    0 ROOT
