@<TRIPOS>MOLECULE
MOL
  189   185     1     0     0
SMALL
resp


@<TRIPOS>ATOM
      1 C1          0.6600   -4.2240    6.1000 c3        1 MOL     -0.386462
      2 C2          1.0830   -3.6210    4.7500 c         1 MOL      0.764674
      3 O1          1.2880   -2.3970    4.7040 o         1 MOL     -0.603267
      4 H1          0.4800   -3.4210    6.8150 hc        1 MOL      0.098461
      5 H2         -0.2530   -4.8050    5.9690 hc        1 MOL      0.098461
      6 H3          1.4530   -4.8710    6.4740 hc        1 MOL      0.098461
      7 N1          1.3350   -4.4230    3.7070 n         1 MOL     -0.671535
      8 C3          1.8720   -3.9840    2.3880 c3        1 MOL      0.239241
      9 C4          1.6970   -5.0460    1.3200 c         1 MOL      0.499561
     10 O2          2.0580   -6.1570    1.6620 o         1 MOL     -0.573962
     11 C5          3.3160   -3.6680    2.5040 c3        1 MOL     -0.269811
     12 C6          4.0310   -2.9430    1.4000 c         1 MOL      0.854805
     13 O3          5.1660   -2.5240    1.6870 o         1 MOL     -0.704733
     14 O4          3.4220   -2.5410    0.3460 o         1 MOL     -0.704733
     15 H4          1.3230   -5.4130    3.8550 hn        1 MOL      0.330226
     16 H5          1.4140   -3.0380    2.1070 h1        1 MOL      0.076069
     17 H6          3.9370   -4.5540    2.6550 hc        1 MOL      0.054955
     18 H7          3.3770   -3.0200    3.3840 hc        1 MOL      0.054955
     19 N2          1.1520   -4.7380    0.1270 n         1 MOL     -0.195591
     20 C7          0.9490   -5.7220   -0.9770 c3        1 MOL     -0.309257
     21 C8          1.6590   -5.2960   -2.2800 c         1 MOL      0.569750
     22 O5          1.6460   -6.0110   -3.2310 o         1 MOL     -0.579622
     23 C9         -0.5660   -6.0270   -1.1820 c3        1 MOL      0.366807
     24 C10        -1.3450   -4.7840   -1.6490 c3        1 MOL     -0.101800
     25 C11        -1.2210   -6.5670    0.1220 c3        1 MOL     -0.296754
     26 C12        -2.8870   -4.9070   -1.7990 c3        1 MOL     -0.254928
     27 H8          0.7950   -3.8000    0.0800 hn        1 MOL      0.107190
     28 H9          1.2640   -6.6750   -0.5460 h1        1 MOL      0.127544
     29 H10        -0.6200   -6.7980   -1.9500 hc        1 MOL     -0.047020
     30 H11        -0.8930   -4.3530   -2.5450 hc        1 MOL      0.053365
     31 H12        -1.1940   -4.0070   -0.9010 hc        1 MOL      0.053365
     32 H13        -0.4970   -7.1790    0.6480 hc        1 MOL      0.057532
     33 H14        -1.4510   -5.7520    0.7960 hc        1 MOL      0.057532
     34 H15        -2.0580   -7.2380   -0.1120 hc        1 MOL      0.057532
     35 H16        -3.2730   -4.9130   -0.7870 hc        1 MOL      0.066335
     36 H17        -3.2780   -3.9560   -2.1610 hc        1 MOL      0.066335
     37 H18        -3.2130   -5.7750   -2.3800 hc        1 MOL      0.066335
     38 N3          2.3640   -4.1740   -2.2940 n         1 MOL     -0.292774
     39 C13         3.2020   -3.8050   -3.4470 c3        1 MOL      0.030387
     40 C14         4.6610   -3.5290   -3.1220 c         1 MOL      0.482525
     41 O6          5.4990   -3.6070   -4.0020 o         1 MOL     -0.559641
     42 C15         2.6130   -2.5980   -4.2300 c3        1 MOL     -0.214319
     43 C16         2.1140   -1.3600   -3.5160 c         1 MOL      0.749443
     44 O7          2.5750   -1.1600   -2.3850 o         1 MOL     -0.716264
     45 O8          1.3780   -0.5140   -4.1420 o         1 MOL     -0.716264
     46 H19         2.2870   -3.5400   -1.5130 hn        1 MOL      0.289392
     47 H20         3.2990   -4.6510   -4.1270 h1        1 MOL      0.084105
     48 H21         1.6970   -3.0150   -4.6350 hc        1 MOL      0.047734
     49 H22         3.2400   -2.2680   -5.0650 hc        1 MOL      0.047734
     50 N4          4.9520   -3.2020   -1.8120 n         1 MOL     -0.265758
     51 C17         6.2960   -3.1280   -1.2560 c3        1 MOL     -0.067743
     52 C18         7.0120   -1.8130   -1.3370 c         1 MOL      0.392895
     53 O9          8.2830   -1.7960   -1.2570 o         1 MOL     -0.609940
     54 H23         4.1560   -2.9770   -1.2360 hn        1 MOL      0.000837
     55 H24         6.8820   -3.9440   -1.6820 h1        1 MOL      0.085759
     56 H25         6.2310   -3.4080   -0.2090 h1        1 MOL      0.085759
     57 N5          6.3320   -0.7900   -1.7040 n         1 MOL     -0.072464
     58 C19         6.8480    0.4790   -2.1650 c3        1 MOL     -0.136406
     59 C20         7.2620    1.4760   -1.0950 c         1 MOL      0.416372
     60 O10         7.9590    2.4470   -1.3980 o         1 MOL     -0.520307
     61 C21         5.8150    1.2100   -3.1150 c3        1 MOL     -0.201585
     62 C22         4.5410    1.6410   -2.4410 c         1 MOL      0.758422
     63 O11         4.2600    1.2780   -1.2670 o         1 MOL     -0.688993
     64 O12         3.7780    2.4320   -3.0730 o         1 MOL     -0.688993
     65 H26         5.3350   -0.9150   -1.8150 hn        1 MOL      0.233576
     66 H27         7.7270    0.3100   -2.7890 h1        1 MOL      0.122564
     67 H28         5.5340    0.5120   -3.9010 hc        1 MOL      0.071408
     68 H29         6.2540    2.0800   -3.5900 hc        1 MOL      0.071408
     69 N6          6.7810    1.3140    0.2140 n         1 MOL     -0.195062
     70 C23         7.0680    2.2170    1.3450 c3        1 MOL     -0.245558
     71 C24         6.0830    3.3810    1.3840 c         1 MOL      0.627123
     72 O13         6.4580    4.4310    2.0050 o         1 MOL     -0.617263
     73 H30         6.2640    0.4880    0.4480 hn        1 MOL      0.218773
     74 H31         8.1280    2.4690    1.2420 h1        1 MOL      0.103831
     75 H32         6.9530    1.6040    2.2370 h1        1 MOL      0.103831
     76 N7          4.8480    3.3440    0.7710 n         1 MOL     -0.447957
     77 C25         3.6750    4.1920    1.0990 c3        1 MOL     -0.011620
     78 C26         2.4310    3.3300    1.3440 c         1 MOL      0.555932
     79 O14         2.3710    2.1820    0.9520 o         1 MOL     -0.491568
     80 C27         3.4670    5.2000   -0.0380 c3        1 MOL     -0.166624
     81 C28         4.6060    6.2230    0.0240 c3        1 MOL     -0.190316
     82 C29         4.3800    7.5440   -0.6650 c         1 MOL      0.652753
     83 N8          5.3780    8.3750   -0.8080 n         1 MOL     -0.802792
     84 O15         3.2750    7.9270   -1.0740 o         1 MOL     -0.585009
     85 H33         4.6850    2.5790    0.1300 hn        1 MOL      0.323092
     86 H34         3.8220    4.6600    2.0660 h1        1 MOL      0.056395
     87 H35         2.5010    5.7110    0.0010 hc        1 MOL      0.110521
     88 H36         3.4590    4.7610   -1.0430 hc        1 MOL      0.110521
     89 H37         5.5560    5.8470   -0.3700 hc        1 MOL      0.095424
     90 H38         4.8070    6.5420    1.0380 hc        1 MOL      0.095424
     91 H39         6.3030    8.1870   -0.4520 hn        1 MOL      0.352494
     92 H40         5.1240    9.2000   -1.3310 hn        1 MOL      0.352494
     93 N9          1.4630    3.9590    2.0340 n         1 MOL     -0.435127
     94 C30         0.1970    3.2750    2.3650 c3        1 MOL     -0.164079
     95 C31        -0.8940    3.5390    1.3250 c         1 MOL      0.816989
     96 O16        -1.1420    4.7120    1.1660 o         1 MOL     -0.634630
     97 C32        -0.2550    3.6580    3.8060 c3        1 MOL      0.324958
     98 C33        -1.4390    2.7660    4.1700 c3        1 MOL     -0.381029
     99 C34         0.7740    3.3880    4.9040 c3        1 MOL     -0.381029
    100 H41         1.5960    4.9080    2.3480 hn        1 MOL      0.290012
    101 H42         0.3990    2.2100    2.4470 h1        1 MOL      0.065917
    102 H43        -0.6300    4.6900    3.8240 hc        1 MOL     -0.039980
    103 H44        -1.1250    1.7230    4.1790 hc        1 MOL      0.086654
    104 H45        -1.6840    3.0640    5.1900 hc        1 MOL      0.086654
    105 H46        -2.2360    2.9570    3.4400 hc        1 MOL      0.086654
    106 H47         1.5490    4.1590    4.9690 hc        1 MOL      0.086654
    107 H48         0.3380    3.1260    5.8620 hc        1 MOL      0.086654
    108 H49         1.2770    2.4760    4.5960 hc        1 MOL      0.086654
    109 N10        -1.4910    2.5700    0.6280 n         1 MOL     -0.694647
    110 C35        -2.6490    2.7740   -0.2570 c3        1 MOL      0.422821
    111 C36        -3.9210    2.5910    0.5570 c         1 MOL      0.058254
    112 O17        -3.9050    2.1690    1.6880 o         1 MOL     -0.279715
    113 C37        -2.4320    1.8000   -1.4330 c3        1 MOL     -0.203906
    114 C38        -3.6300    1.7620   -2.3570 c         1 MOL      0.692492
    115 N11        -3.8160    2.7610   -3.1690 n         1 MOL     -0.777226
    116 O18        -4.3960    0.7930   -2.4020 o         1 MOL     -0.552276
    117 H50        -1.3890    1.6030    0.8980 hn        1 MOL      0.450930
    118 H51        -2.5780    3.7500   -0.7480 h1        1 MOL     -0.005153
    119 H52        -2.4550    0.7460   -1.1390 hc        1 MOL      0.084216
    120 H53        -1.5100    1.9780   -2.0040 hc        1 MOL      0.084216
    121 H54        -3.3830    3.6730   -3.0710 hn        1 MOL      0.358253
    122 H55        -4.6700    2.6070   -3.6770 hn        1 MOL      0.358253
    123 N12        -5.1190    2.8030   -0.0400 n         1 MOL     -0.158310
    124 C39        -6.4760    2.6310    0.5460 c3        1 MOL      0.176082
    125 C40        -6.7580    1.1020    0.7580 c         1 MOL      0.357491
    126 O19        -7.3980    0.7480    1.7470 o         1 MOL     -0.570940
    127 C41        -7.4550    3.4320   -0.3220 c3        1 MOL     -0.183483
    128 C42        -7.3680    3.1170   -1.8390 ca        1 MOL      0.140809
    129 C43        -6.7780    4.0500   -2.7060 ca        1 MOL     -0.318421
    130 C44        -7.8250    1.8540   -2.2310 ca        1 MOL     -0.318421
    131 C45        -6.5810    3.6440   -4.0230 ca        1 MOL     -0.072630
    132 C46        -7.7230    1.5300   -3.5950 ca        1 MOL     -0.072630
    133 C47        -7.0470    2.4390   -4.5010 ca        1 MOL      0.231420
    134 O20        -6.9710    2.1150   -5.8060 oh        1 MOL     -0.570479
    135 H56        -5.0710    3.0840   -1.0080 hn        1 MOL      0.038202
    136 H57        -6.6080    3.0600    1.5370 h1        1 MOL      0.029006
    137 H58        -7.3270    4.4900   -0.1360 hc        1 MOL      0.062899
    138 H59        -8.4430    3.1430    0.0220 hc        1 MOL      0.062899
    139 H60        -6.4750    5.0270   -2.3700 ha        1 MOL      0.168170
    140 H61        -8.3800    1.2210   -1.5630 ha        1 MOL      0.168170
    141 H62        -6.2560    4.3810   -4.7420 ha        1 MOL      0.083136
    142 H63        -8.1590    0.6050   -3.9370 ha        1 MOL      0.083136
    143 H64        -7.4360    1.3010   -6.0230 ho        1 MOL      0.440530
    144 N13        -6.2330    0.1660   -0.0340 n         1 MOL      0.293580
    145 C48        -6.3900   -1.2490    0.3610 c3        1 MOL     -0.587362
    146 C49        -5.4930   -1.6740    1.5230 c         1 MOL      0.693840
    147 O21        -5.7830   -2.6660    2.1380 o         1 MOL     -0.554327
    148 C50        -6.0840   -2.2190   -0.8010 c3        1 MOL      0.030242
    149 C51        -7.0070   -2.0990   -1.9700 c3        1 MOL     -0.121529
    150 C52        -8.4860   -2.2630   -1.6580 c         1 MOL      0.697999
    151 O22        -8.8310   -3.1650   -0.8940 o         1 MOL     -0.716399
    152 O23        -9.2860   -1.5160   -2.1900 o         1 MOL     -0.716399
    153 H65        -5.8470    0.4040   -0.9400 hn        1 MOL      0.082144
    154 H66        -7.4110   -1.4150    0.7060 h1        1 MOL      0.243738
    155 H67        -6.1590   -3.2610   -0.4790 hc        1 MOL      0.042744
    156 H68        -5.0490   -2.2120   -1.1630 hc        1 MOL      0.042744
    157 H69        -6.7940   -2.9210   -2.6600 hc        1 MOL     -0.000294
    158 H70        -6.8310   -1.1730   -2.5050 hc        1 MOL     -0.000294
    159 N14        -4.4710   -0.9440    1.9380 n         1 MOL     -0.377289
    160 C53        -3.4650   -1.3710    2.9270 c3        1 MOL     -0.062224
    161 C54        -3.7270   -0.8220    4.3540 c         1 MOL      0.505954
    162 O24        -3.4620   -1.4900    5.3160 o         1 MOL     -0.568544
    163 C55        -2.0980   -0.9840    2.3870 c3        1 MOL     -0.029017
    164 C56        -1.7700   -1.6670    1.0870 c3        1 MOL      0.032860
    165 C57        -0.4470   -1.1420    0.4690 c         1 MOL      0.752378
    166 O25         0.4150   -1.9000   -0.0100 o         1 MOL     -0.773508
    167 O26        -0.2140    0.1140    0.4480 o         1 MOL     -0.773508
    168 H71        -4.2450   -0.0870    1.4420 hn        1 MOL      0.073404
    169 H72        -3.4820   -2.4560    3.0480 h1        1 MOL      0.083574
    170 H73        -1.3480   -1.2440    3.1310 hc        1 MOL      0.023542
    171 H74        -1.9580    0.0820    2.2830 hc        1 MOL      0.023542
    172 H75        -2.5740   -1.4950    0.3660 hc        1 MOL      0.003280
    173 H76        -1.5360   -2.7150    1.2330 hc        1 MOL      0.003280
    174 N15        -4.2650    0.3450    4.3620 n         1 MOL     -0.084983
    175 C58        -4.5340    1.1370    5.5750 c3        1 MOL     -0.221434
    176 H77        -3.6000    1.3130    6.1080 h1        1 MOL      0.085000
    177 H78        -4.9770    2.0930    5.2950 h1        1 MOL      0.085000
    178 H79        -5.2220    0.5920    6.2210 h1        1 MOL      0.085000
    179 H80        -4.2680    0.8160    3.4710 hn        1 MOL      0.101024
    180 Ca1         2.4280   -0.1380   -0.0200 Ca        1 MOL      1.746569
    181 O27         1.9380   -0.4910    2.6400 oh        1 MOL     -0.943217
    182 H81         2.3590    0.1820    3.1920 ho        1 MOL      0.431087
    183 H82         1.5160   -1.0750    3.2630 ho        1 MOL      0.431087
    184 O28         4.6060   -0.0500    1.5380 oh        1 MOL     -0.943217
    185 H83         4.7880   -0.9830    1.4740 ho        1 MOL      0.431087
    186 H84         4.7760    0.1630    2.4580 ho        1 MOL      0.431087
    187 O29         1.6200    1.6010   -1.8190 oh        1 MOL     -0.943217
    188 H85         2.4340    1.9600   -2.1670 ho        1 MOL      0.431087
    189 H86         1.2920    1.0300   -2.5150 ho        1 MOL      0.431087
@<TRIPOS>BOND
     1    1    2 1   
     2    1    4 1   
     3    1    5 1   
     4    1    6 1   
     5    2    3 2   
     6    2    7 1   
     7    7    8 1   
     8    7   15 1   
     9    8    9 1   
    10    8   11 1   
    11    8   16 1   
    12    9   10 2   
    13    9   19 1   
    14   11   12 1   
    15   11   17 1   
    16   11   18 1   
    17   12   13 1   
    18   12   14 1   
    19   19   20 1   
    20   19   27 1   
    21   20   21 1   
    22   20   23 1   
    23   20   28 1   
    24   21   22 2   
    25   21   38 1   
    26   23   24 1   
    27   23   25 1   
    28   23   29 1   
    29   24   26 1   
    30   24   30 1   
    31   24   31 1   
    32   25   32 1   
    33   25   33 1   
    34   25   34 1   
    35   26   35 1   
    36   26   36 1   
    37   26   37 1   
    38   38   39 1   
    39   38   46 1   
    40   39   40 1   
    41   39   42 1   
    42   39   47 1   
    43   40   41 2   
    44   40   50 1   
    45   42   43 1   
    46   42   48 1   
    47   42   49 1   
    48   43   44 1   
    49   43   45 1   
    50   50   51 1   
    51   50   54 1   
    52   51   52 1   
    53   51   55 1   
    54   51   56 1   
    55   52   53 2   
    56   52   57 1   
    57   57   58 1   
    58   57   65 1   
    59   58   59 1   
    60   58   61 1   
    61   58   66 1   
    62   59   60 2   
    63   59   69 1   
    64   61   62 1   
    65   61   67 1   
    66   61   68 1   
    67   62   63 1   
    68   62   64 1   
    69   69   70 1   
    70   69   73 1   
    71   70   71 1   
    72   70   74 1   
    73   70   75 1   
    74   71   72 2   
    75   71   76 1   
    76   76   77 1   
    77   76   85 1   
    78   77   78 1   
    79   77   80 1   
    80   77   86 1   
    81   78   79 2   
    82   78   93 1   
    83   80   81 1   
    84   80   87 1   
    85   80   88 1   
    86   81   82 1   
    87   81   89 1   
    88   81   90 1   
    89   82   83 1   
    90   82   84 2   
    91   83   91 1   
    92   83   92 1   
    93   93   94 1   
    94   93  100 1   
    95   94   95 1   
    96   94   97 1   
    97   94  101 1   
    98   95   96 2   
    99   95  109 1   
   100   97   98 1   
   101   97   99 1   
   102   97  102 1   
   103   98  103 1   
   104   98  104 1   
   105   98  105 1   
   106   99  106 1   
   107   99  107 1   
   108   99  108 1   
   109  109  110 1   
   110  109  117 1   
   111  110  111 1   
   112  110  113 1   
   113  110  118 1   
   114  111  112 2   
   115  111  123 1   
   116  113  114 1   
   117  113  119 1   
   118  113  120 1   
   119  114  115 1   
   120  114  116 2   
   121  115  121 1   
   122  115  122 1   
   123  123  124 1   
   124  123  135 1   
   125  124  125 1   
   126  124  127 1   
   127  124  136 1   
   128  125  126 2   
   129  125  144 1   
   130  127  128 1   
   131  127  137 1   
   132  127  138 1   
   133  128  129 ar  
   134  128  130 ar  
   135  129  131 ar  
   136  129  139 1   
   137  130  132 ar  
   138  130  140 1   
   139  131  133 ar  
   140  131  141 1   
   141  132  133 ar  
   142  132  142 1   
   143  133  134 1   
   144  134  143 1   
   145  144  145 1   
   146  144  153 1   
   147  145  146 1   
   148  145  148 1   
   149  145  154 1   
   150  146  147 2   
   151  146  159 1   
   152  148  149 1   
   153  148  155 1   
   154  148  156 1   
   155  149  150 1   
   156  149  157 1   
   157  149  158 1   
   158  150  151 1   
   159  150  152 1   
   160  159  160 1   
   161  159  168 1   
   162  160  161 1   
   163  160  163 1   
   164  160  169 1   
   165  161  162 2   
   166  161  174 1   
   167  163  164 1   
   168  163  170 1   
   169  163  171 1   
   170  164  165 1   
   171  164  172 1   
   172  164  173 1   
   173  165  166 1   
   174  165  167 1   
   175  174  175 1   
   176  174  179 1   
   177  175  176 1   
   178  175  177 1   
   179  175  178 1   
   180  181  182 1   
   181  181  183 1   
   182  184  185 1   
   183  184  186 1   
   184  187  188 1   
   185  187  189 1   
@<TRIPOS>SUBSTRUCTURE
     1 MOL         1 TEMP              0 ****  ****    0 ROOT
