@<TRIPOS>MOLECULE
MOL
  175   173     1     0     0
SMALL
resp


@<TRIPOS>ATOM
      1 C1         -1.1990    4.5670    5.6120 c3        1 MOL     -0.371772
      2 C2         -1.6800    4.3980    4.1840 c         1 MOL      0.728498
      3 O1         -1.0880    5.0600    3.3140 o         1 MOL     -0.593413
      4 H1         -1.5740    3.7450    6.2210 hc        1 MOL      0.086365
      5 H2         -0.1090    4.5650    5.6310 hc        1 MOL      0.086365
      6 H3         -1.5670    5.5130    6.0100 hc        1 MOL      0.086365
      7 N1         -2.5030    3.4360    3.8420 n         1 MOL     -0.622879
      8 C3         -2.7170    2.9300    2.4310 c3        1 MOL      0.090358
      9 C4         -2.9250    3.9870    1.3070 c         1 MOL      0.518994
     10 O2         -3.8170    4.8930    1.3570 o         1 MOL     -0.559448
     11 C5         -3.8940    1.9160    2.5260 c3        1 MOL     -0.040893
     12 C6         -4.1530    1.0100    1.3480 c         1 MOL      0.769343
     13 O3         -4.9510    0.1150    1.5600 o         1 MOL     -0.770686
     14 O4         -3.6690    1.3070    0.2410 o         1 MOL     -0.770686
     15 H4         -2.8100    2.9350    4.6630 hn        1 MOL      0.310540
     16 H5         -1.7890    2.4070    2.1610 h1        1 MOL      0.099566
     17 H6         -4.7940    2.3900    2.9180 hc        1 MOL      0.001836
     18 H7         -3.4690    1.2930    3.3130 hc        1 MOL      0.001836
     19 N2         -2.0410    3.9070    0.2450 n         1 MOL     -0.135572
     20 C7         -1.9950    4.8930   -0.8000 c3        1 MOL     -0.206940
     21 C8         -3.2580    4.9070   -1.6880 c         1 MOL      0.623862
     22 O5         -3.6070    5.8850   -2.3790 o         1 MOL     -0.586499
     23 C9         -0.9000    4.6320   -1.7970 c3        1 MOL      0.057292
     24 H8         -1.4240    3.1150    0.1360 hn        1 MOL      0.128868
     25 H9         -1.7740    5.8390   -0.3020 h1        1 MOL      0.100871
     26 H10         0.0670    4.3340   -1.4060 hc        1 MOL      0.006560
     27 H11        -1.0870    3.8660   -2.5470 hc        1 MOL      0.006560
     28 H12        -0.7260    5.5060   -2.4310 hc        1 MOL      0.006560
     29 N3         -3.9950    3.7870   -1.6290 n         1 MOL     -0.556563
     30 C10        -4.9980    3.4730   -2.6790 c3        1 MOL      0.188165
     31 C11        -6.3450    2.7850   -2.0350 c         1 MOL      0.396910
     32 O6         -7.2620    2.4700   -2.7650 o         1 MOL     -0.556580
     33 C12        -4.3880    2.5360   -3.7240 c3        1 MOL     -0.230128
     34 C13        -3.5780    1.4100   -3.1250 c         1 MOL      0.732351
     35 O7         -2.2710    1.3930   -3.0350 o         1 MOL     -0.728342
     36 O8         -4.3020    0.5760   -2.5310 o         1 MOL     -0.728342
     37 H13        -3.7150    3.1070   -0.9350 hn        1 MOL      0.306254
     38 H14        -5.4330    4.3240   -3.2030 h1        1 MOL      0.081104
     39 H15        -3.7940    3.1990   -4.3510 hc        1 MOL      0.046905
     40 H16        -5.1240    2.0740   -4.3790 hc        1 MOL      0.046905
     41 N4         -6.2750    2.5580   -0.7730 n         1 MOL     -0.233816
     42 C14        -7.3660    1.9690    0.0170 c3        1 MOL     -0.185737
     43 C15        -7.5310    0.4700   -0.2540 c         1 MOL      0.588886
     44 O9         -8.5220    0.0070    0.2880 o         1 MOL     -0.600214
     45 H17        -5.3650    2.6320   -0.3360 hn        1 MOL      0.174260
     46 H18        -8.2930    2.5330   -0.0750 h1        1 MOL      0.128738
     47 H19        -7.0600    2.1440    1.0420 h1        1 MOL      0.128738
     48 N5         -6.6960   -0.3360   -1.0440 n         1 MOL     -0.377506
     49 C16        -6.9780   -1.7100   -1.2670 c3        1 MOL     -0.014029
     50 C17        -6.8900   -2.7010   -0.1140 c         1 MOL      0.473965
     51 O10        -7.2560   -3.8790   -0.2630 o         1 MOL     -0.570445
     52 C18        -6.1830   -2.1600   -2.4790 c3        1 MOL     -0.241496
     53 C19        -4.8610   -2.6990   -1.9970 c         1 MOL      0.623764
     54 N6         -4.6130   -4.0130   -2.0460 n         1 MOL     -0.772937
     55 O11        -4.0420   -1.9990   -1.4590 o         1 MOL     -0.611734
     56 H20        -5.8930    0.1240   -1.4520 hn        1 MOL      0.335459
     57 H21        -8.0350   -1.7820   -1.5040 h1        1 MOL      0.117607
     58 H22        -5.9150   -1.3130   -3.1150 hc        1 MOL      0.094116
     59 H23        -6.7630   -2.8780   -3.0640 hc        1 MOL      0.094116
     60 H24        -5.2820   -4.6210   -2.4970 hn        1 MOL      0.347078
     61 H25        -3.8620   -4.4150   -1.5220 hn        1 MOL      0.347078
     62 N7         -6.5020   -2.2630    1.0850 n         1 MOL     -0.269483
     63 C20        -6.3390   -3.3160    2.2070 c3        1 MOL     -0.188475
     64 C21        -4.9840   -3.9530    2.4360 c         1 MOL      0.545784
     65 O12        -4.8400   -4.7090    3.4030 o         1 MOL     -0.573602
     66 H26        -6.2370   -1.3090    1.2450 hn        1 MOL      0.340802
     67 H27        -7.0840   -4.1070    2.0560 h1        1 MOL      0.112629
     68 H28        -6.5370   -2.8250    3.1580 h1        1 MOL      0.112629
     69 N8         -3.9140   -3.5780    1.6640 n         1 MOL     -0.176729
     70 C22        -2.5330   -4.0330    1.7520 c3        1 MOL     -0.014205
     71 C23        -1.5990   -2.8560    1.4740 c         1 MOL      0.449919
     72 O13        -1.9800   -1.8080    0.9360 o         1 MOL     -0.582152
     73 C24        -2.1840   -5.2460    0.8210 c3        1 MOL      0.295779
     74 C25        -2.9640   -6.4490    1.2480 c3        1 MOL     -0.306774
     75 O14        -2.4770   -4.9280   -0.5300 oh        1 MOL     -0.671072
     76 H29        -4.0750   -3.0060    0.8440 hn        1 MOL      0.182432
     77 H30        -2.4470   -4.3610    2.7880 h1        1 MOL      0.086067
     78 H31        -1.1080   -5.4410    0.7580 h1        1 MOL      0.041574
     79 H32        -2.4380   -5.7480   -1.0200 ho        1 MOL      0.426884
     80 H33        -4.0420   -6.3250    1.3290 hc        1 MOL      0.083440
     81 H34        -2.7150   -7.3280    0.6610 hc        1 MOL      0.083440
     82 H35        -2.5970   -6.5730    2.2650 hc        1 MOL      0.083440
     83 N9         -0.3510   -3.1580    1.6750 n         1 MOL     -0.275811
     84 C26         0.7140   -2.1980    1.4340 c3        1 MOL     -0.106626
     85 C27         1.7860   -2.7380    0.5480 c         1 MOL      0.645787
     86 O15         2.3610   -3.7520    0.7180 o         1 MOL     -0.570926
     87 C28         1.2760   -1.6190    2.7440 c3        1 MOL      0.134391
     88 C29         1.7610   -2.6350    3.8220 c3        1 MOL      0.088655
     89 C30         0.2460   -0.6900    3.3640 c3        1 MOL     -0.366841
     90 C31         2.6650   -2.0660    4.8620 c3        1 MOL     -0.130291
     91 H36        -0.1580   -4.0740    2.0530 hn        1 MOL      0.197849
     92 H37         0.3230   -1.2730    0.9970 h1        1 MOL     -0.012946
     93 H38         2.1570   -1.0560    2.4450 hc        1 MOL     -0.058743
     94 H39         2.4590   -3.3090    3.3230 hc        1 MOL     -0.009080
     95 H40         0.9680   -3.2050    4.3010 hc        1 MOL     -0.009080
     96 H41        -0.2080   -0.0100    2.6480 hc        1 MOL      0.099119
     97 H42        -0.5810   -1.2260    3.8250 hc        1 MOL      0.099119
     98 H43         0.6740   -0.0340    4.1150 hc        1 MOL      0.099119
     99 H44         3.2280   -2.8780    5.3340 hc        1 MOL      0.016973
    100 H45         3.3320   -1.3670    4.3490 hc        1 MOL      0.016973
    101 H46         2.1010   -1.4670    5.5780 hc        1 MOL      0.016973
    102 N10         1.9880   -1.9180   -0.4980 n         1 MOL     -0.650587
    103 C32         3.1210   -2.0190   -1.4110 c3        1 MOL      0.512264
    104 C33         4.4240   -1.5670   -0.7040 c         1 MOL      0.381986
    105 O16         4.4450   -1.0680    0.3900 o         1 MOL     -0.378399
    106 C34         2.7580   -1.1970   -2.7030 c3        1 MOL     -0.575019
    107 C35         3.4410   -1.8190   -3.9380 c         1 MOL      0.717706
    108 O17         3.0610   -1.6330   -5.1380 o         1 MOL     -0.695668
    109 O18         4.3940   -2.6190   -3.7730 o         1 MOL     -0.695668
    110 H47         1.2410   -1.3000   -0.7810 hn        1 MOL      0.325811
    111 H48         3.2400   -3.0810   -1.6310 h1        1 MOL     -0.006018
    112 H49         3.1510   -0.1820   -2.6880 hc        1 MOL      0.168697
    113 H50         1.6650   -1.2180   -2.8000 hc        1 MOL      0.168697
    114 N11         5.5710   -1.6990   -1.4310 n         1 MOL     -0.658802
    115 C36         6.8760   -1.3500   -0.7940 c3        1 MOL      0.526129
    116 C37         7.0440    0.1370   -0.3370 c         1 MOL      0.249565
    117 O19         7.4110    0.3650    0.8410 o         1 MOL     -0.474640
    118 C38         8.0850   -1.8890   -1.6170 c3        1 MOL     -0.134140
    119 C39         9.4210   -1.5330   -1.0470 ca        1 MOL      0.092418
    120 C40         9.7100   -1.9970    0.2600 ca        1 MOL     -0.207911
    121 C41        10.3470   -0.7680   -1.7460 ca        1 MOL     -0.207911
    122 C42        11.0160   -1.8030    0.7880 ca        1 MOL     -0.048646
    123 C43        11.6050   -0.4350   -1.1470 ca        1 MOL     -0.048646
    124 C44        11.9670   -1.0010    0.1470 ca        1 MOL     -0.209453
    125 H51         5.5150   -2.1270   -2.3490 hn        1 MOL      0.275320
    126 H52         6.9420   -1.9400    0.1220 h1        1 MOL     -0.016711
    127 H53         8.1500   -1.4360   -2.6020 hc        1 MOL      0.046491
    128 H54         8.0320   -2.9650   -1.7880 hc        1 MOL      0.046491
    129 H55         9.0020   -2.5050    0.9110 ha        1 MOL      0.132078
    130 H56        10.0960   -0.4280   -2.7430 ha        1 MOL      0.132078
    131 H57        11.2310   -2.2270    1.7610 ha        1 MOL      0.089055
    132 H58        12.2960    0.0880   -1.7890 ha        1 MOL      0.089055
    133 H59        12.8860   -0.7960    0.6750 ha        1 MOL      0.127901
    134 N12         6.5920    1.1710   -1.1440 n         1 MOL     -0.067956
    135 C45         6.6770    2.5940   -0.6930 c3        1 MOL      0.057394
    136 C46         5.6560    3.0020    0.2540 c         1 MOL      0.225791
    137 O20         5.9350    3.9060    1.1130 o         1 MOL     -0.528954
    138 C47         6.6460    3.4650   -1.9670 c3        1 MOL     -0.068973
    139 C48         6.9310    2.4640   -3.0440 c3        1 MOL     -0.010899
    140 C49         6.4970    1.1460   -2.6150 c3        1 MOL     -0.003980
    141 H60         7.6780    2.7830   -0.2980 h1        1 MOL      0.074421
    142 H61         5.6010    3.7590   -2.0790 hc        1 MOL      0.053666
    143 H62         7.3260    4.3100   -1.9730 hc        1 MOL      0.053666
    144 H63         6.4060    2.8430   -3.9170 hc        1 MOL      0.007532
    145 H64         8.0030    2.3600   -3.2470 hc        1 MOL      0.007532
    146 H65         5.5130    0.8270   -2.9690 h1        1 MOL      0.033360
    147 H66         7.1270    0.3400   -3.0140 h1        1 MOL      0.033360
    148 N13         4.6110    2.2570    0.4410 n         1 MOL     -0.110980
    149 C50         3.6990    2.3970    1.6270 c3        1 MOL     -0.023325
    150 C51         4.2020    1.7290    2.9140 c         1 MOL      0.464641
    151 O21         3.9530    2.2640    3.9920 o         1 MOL     -0.558123
    152 C52         2.3910    1.6910    1.2710 c3        1 MOL      0.011038
    153 C53         1.6580    2.0870   -0.0840 c3        1 MOL     -0.151779
    154 C54         0.3540    1.2420   -0.2850 c         1 MOL      0.936295
    155 O22        -0.6740    1.5380    0.3390 o         1 MOL     -0.800838
    156 O23         0.2790    0.3770   -1.1870 o         1 MOL     -0.800838
    157 H67         4.4740    1.4600   -0.1630 hn        1 MOL      0.179704
    158 H68         3.4570    3.4390    1.8740 h1        1 MOL      0.096358
    159 H69         1.6290    1.8780    2.0270 hc        1 MOL      0.049992
    160 H70         2.6010    0.6250    1.3230 hc        1 MOL      0.049992
    161 H71         2.3730    1.9330   -0.8930 hc        1 MOL      0.002392
    162 H72         1.2800    3.1050   -0.0760 hc        1 MOL      0.002392
    163 N14         4.8600    0.5540    2.7840 n         1 MOL      0.016608
    164 C55         5.6900    0.0360    3.8000 c3        1 MOL     -0.155414
    165 H73         5.1780   -0.7840    4.3040 h1        1 MOL      0.055161
    166 H74         6.6180   -0.3310    3.3610 h1        1 MOL      0.055161
    167 H75         5.9140    0.8210    4.5220 h1        1 MOL      0.055161
    168 H76         5.0740    0.1810    1.8720 hn        1 MOL      0.059326
    169 Ca1        -2.1480   -0.2720   -1.0750 Ca        1 MOL      1.803714
    170 O24        -1.8880   -1.3960   -3.8010 oh        1 MOL     -0.768050
    171 H77        -1.2990   -1.5050   -4.5560 ho        1 MOL      0.381664
    172 H78        -2.7530   -1.6390   -4.1340 ho        1 MOL      0.381664
    173 O25        -1.0070   -2.7930   -1.6020 oh        1 MOL     -0.768050
    174 H79        -0.8420   -2.8860   -2.5440 ho        1 MOL      0.381664
    175 H80        -1.2300   -3.6740   -1.3090 ho        1 MOL      0.381664
@<TRIPOS>BOND
     1    1    2 1   
     2    1    4 1   
     3    1    5 1   
     4    1    6 1   
     5    2    3 2   
     6    2    7 1   
     7    7    8 1   
     8    7   15 1   
     9    8    9 1   
    10    8   11 1   
    11    8   16 1   
    12    9   10 2   
    13    9   19 1   
    14   11   12 1   
    15   11   17 1   
    16   11   18 1   
    17   12   13 1   
    18   12   14 1   
    19   19   20 1   
    20   19   24 1   
    21   20   21 1   
    22   20   23 1   
    23   20   25 1   
    24   21   22 2   
    25   21   29 1   
    26   23   26 1   
    27   23   27 1   
    28   23   28 1   
    29   29   30 1   
    30   29   37 1   
    31   30   31 1   
    32   30   33 1   
    33   30   38 1   
    34   31   32 2   
    35   31   41 1   
    36   33   34 1   
    37   33   39 1   
    38   33   40 1   
    39   34   35 1   
    40   34   36 1   
    41   41   42 1   
    42   41   45 1   
    43   42   43 1   
    44   42   46 1   
    45   42   47 1   
    46   43   44 2   
    47   43   48 1   
    48   48   49 1   
    49   48   56 1   
    50   49   50 1   
    51   49   52 1   
    52   49   57 1   
    53   50   51 2   
    54   50   62 1   
    55   52   53 1   
    56   52   58 1   
    57   52   59 1   
    58   53   54 1   
    59   53   55 2   
    60   54   60 1   
    61   54   61 1   
    62   62   63 1   
    63   62   66 1   
    64   63   64 1   
    65   63   67 1   
    66   63   68 1   
    67   64   65 2   
    68   64   69 1   
    69   69   70 1   
    70   69   76 1   
    71   70   71 1   
    72   70   73 1   
    73   70   77 1   
    74   71   72 2   
    75   71   83 1   
    76   73   74 1   
    77   73   75 1   
    78   73   78 1   
    79   74   80 1   
    80   74   81 1   
    81   74   82 1   
    82   75   79 1   
    83   83   84 1   
    84   83   91 1   
    85   84   85 1   
    86   84   87 1   
    87   84   92 1   
    88   85   86 2   
    89   85  102 1   
    90   87   88 1   
    91   87   89 1   
    92   87   93 1   
    93   88   90 1   
    94   88   94 1   
    95   88   95 1   
    96   89   96 1   
    97   89   97 1   
    98   89   98 1   
    99   90   99 1   
   100   90  100 1   
   101   90  101 1   
   102  102  103 1   
   103  102  110 1   
   104  103  104 1   
   105  103  106 1   
   106  103  111 1   
   107  104  105 2   
   108  104  114 1   
   109  106  107 1   
   110  106  112 1   
   111  106  113 1   
   112  107  108 1   
   113  107  109 1   
   114  114  115 1   
   115  114  125 1   
   116  115  116 1   
   117  115  118 1   
   118  115  126 1   
   119  116  117 2   
   120  116  134 1   
   121  118  119 1   
   122  118  127 1   
   123  118  128 1   
   124  119  120 ar  
   125  119  121 ar  
   126  120  122 ar  
   127  120  129 1   
   128  121  123 ar  
   129  121  130 1   
   130  122  124 ar  
   131  122  131 1   
   132  123  124 ar  
   133  123  132 1   
   134  124  133 1   
   135  134  135 1   
   136  134  140 1   
   137  135  136 1   
   138  135  138 1   
   139  135  141 1   
   140  136  137 2   
   141  136  148 1   
   142  138  139 1   
   143  138  142 1   
   144  138  143 1   
   145  139  140 1   
   146  139  144 1   
   147  139  145 1   
   148  140  146 1   
   149  140  147 1   
   150  148  149 1   
   151  148  157 1   
   152  149  150 1   
   153  149  152 1   
   154  149  158 1   
   155  150  151 2   
   156  150  163 1   
   157  152  153 1   
   158  152  159 1   
   159  152  160 1   
   160  153  154 1   
   161  153  161 1   
   162  153  162 1   
   163  154  155 1   
   164  154  156 1   
   165  163  164 1   
   166  163  168 1   
   167  164  165 1   
   168  164  166 1   
   169  164  167 1   
   170  170  171 1   
   171  170  172 1   
   172  173  174 1   
   173  173  175 1   
@<TRIPOS>SUBSTRUCTURE
     1 MOL         1 TEMP              0 ****  ****    0 ROOT
