@<TRIPOS>MOLECULE
MOL
  189   185     1     0     0
SMALL
resp


@<TRIPOS>ATOM
      1 C1          0.4540    2.0160    5.5040 c3        1 MOL     -0.367776
      2 C2         -0.1790    2.1530    4.1430 c         1 MOL      0.753871
      3 O1          0.5430    2.6680    3.3040 o         1 MOL     -0.618805
      4 H1          1.4020    1.4860    5.4110 hc        1 MOL      0.095098
      5 H2          0.6330    3.0060    5.9230 hc        1 MOL      0.095098
      6 H3         -0.2120    1.4570    6.1620 hc        1 MOL      0.095098
      7 N1         -1.4890    1.8720    3.9160 n         1 MOL     -0.649503
      8 C3         -2.1450    1.6180    2.6420 c3        1 MOL      0.308261
      9 C4         -2.7050    2.9810    2.0670 c         1 MOL      0.360467
     10 O2         -3.7200    3.4970    2.4770 o         1 MOL     -0.519342
     11 C5         -3.1720    0.5160    2.9810 c3        1 MOL     -0.314111
     12 C6         -3.9610    0.1400    1.6990 c         1 MOL      0.730519
     13 O3         -5.0140   -0.5110    1.8130 o         1 MOL     -0.669933
     14 O4         -3.4490    0.4230    0.5760 o         1 MOL     -0.669933
     15 H4         -1.9750    1.3100    4.6020 hn        1 MOL      0.317958
     16 H5         -1.4300    1.1900    1.9360 h1        1 MOL     -0.014060
     17 H6         -3.7280    0.8650    3.8490 hc        1 MOL      0.073651
     18 H7         -2.5610   -0.3190    3.3260 hc        1 MOL      0.073651
     19 N2         -1.9660    3.5210    1.0530 n         1 MOL     -0.104392
     20 C7         -2.1390    4.8030    0.4220 c3        1 MOL      0.038173
     21 C8         -3.1570    4.9000   -0.6620 c         1 MOL      0.635710
     22 O5         -3.3730    6.0230   -1.2070 o         1 MOL     -0.627225
     23 C9         -0.7710    5.4690    0.0840 c3        1 MOL     -0.088437
     24 C10         0.2400    5.5790    1.2680 c3        1 MOL      0.030148
     25 C11        -0.2060    6.5500    2.3140 c3        1 MOL     -0.373275
     26 C12         0.7630    6.5800    3.4420 c3        1 MOL      0.204043
     27 N3          0.4380    7.5290    4.4850 n4        1 MOL     -0.402783
     28 H8         -1.0980    3.0490    0.8540 hn        1 MOL      0.190145
     29 H9         -2.6070    5.5060    1.1030 h1        1 MOL      0.012626
     30 H10        -0.8920    6.4810   -0.3040 hc        1 MOL      0.039319
     31 H11        -0.3760    4.8940   -0.7490 hc        1 MOL      0.039319
     32 H12         1.2310    5.8460    0.9090 hc        1 MOL      0.040473
     33 H13         0.4000    4.6060    1.7420 hc        1 MOL      0.040473
     34 H14        -1.1230    6.1260    2.7290 hc        1 MOL      0.120441
     35 H15        -0.3650    7.5300    1.8860 hc        1 MOL      0.120441
     36 H16         1.8030    6.7480    3.1340 hx        1 MOL      0.062649
     37 H17         0.7730    5.5350    3.7530 hx        1 MOL      0.062649
     38 H18         0.3130    8.4630    4.1010 hn        1 MOL      0.331775
     39 H19        -0.4780    7.3850    4.8850 hn        1 MOL      0.331775
     40 H20         0.9740    7.4060    5.3280 hn        1 MOL      0.331775
     41 N4         -3.8550    3.8540   -0.9720 n         1 MOL     -0.455801
     42 C13        -4.8950    3.7840   -2.0210 c3        1 MOL      0.144276
     43 C14        -6.0750    2.8560   -1.6330 c         1 MOL      0.291510
     44 O6         -7.1830    2.9840   -2.1880 o         1 MOL     -0.514877
     45 C15        -4.3060    3.3270   -3.3580 c3        1 MOL     -0.186262
     46 C16        -3.1690    2.3130   -3.1280 c         1 MOL      0.787477
     47 O7         -2.1220    2.5410   -3.7200 o         1 MOL     -0.717747
     48 O8         -3.3210    1.4030   -2.2570 o         1 MOL     -0.717747
     49 H21        -3.5540    2.9900   -0.5600 hn        1 MOL      0.144785
     50 H22        -5.3360    4.7360   -2.2800 h1        1 MOL      0.089600
     51 H23        -3.8070    4.1790   -3.8190 hc        1 MOL      0.042398
     52 H24        -5.0260    3.0270   -4.1100 hc        1 MOL      0.042398
     53 N5         -5.9320    2.1800   -0.5230 n         1 MOL     -0.060394
     54 C17        -7.1170    1.5260    0.1710 c3        1 MOL     -0.414798
     55 C18        -7.5510    0.1750   -0.4520 c         1 MOL      0.595726
     56 O9         -8.7380   -0.2170   -0.3040 o         1 MOL     -0.584353
     57 H25        -5.0130    2.1270   -0.1180 hn        1 MOL      0.189401
     58 H26        -8.0090    2.1420    0.0900 h1        1 MOL      0.170841
     59 H27        -6.7140    1.2270    1.1440 h1        1 MOL      0.170841
     60 N6         -6.6690   -0.4850   -1.1840 n         1 MOL     -0.276821
     61 C19        -7.0080   -1.7560   -1.7440 c3        1 MOL     -0.079527
     62 C20        -6.9450   -2.9770   -0.7740 c         1 MOL      0.429087
     63 O10        -7.3920   -4.0880   -1.0660 o         1 MOL     -0.540715
     64 C21        -5.9450   -2.0110   -2.8960 c3        1 MOL     -0.206469
     65 C22        -4.4840   -1.7920   -2.4900 c         1 MOL      0.689007
     66 O11        -3.6910   -1.1770   -3.2720 o         1 MOL     -0.702685
     67 O12        -4.0910   -1.9420   -1.3380 o         1 MOL     -0.702685
     68 H28        -5.7460   -0.0890   -1.2920 hn        1 MOL      0.293649
     69 H29        -7.9740   -1.7890   -2.2390 h1        1 MOL      0.120717
     70 H30        -5.9890   -1.2010   -3.6280 hc        1 MOL      0.070837
     71 H31        -6.1020   -2.9520   -3.4320 hc        1 MOL      0.070837
     72 N7         -6.4420   -2.7240    0.4150 n         1 MOL     -0.163407
     73 C23        -6.2270   -3.7730    1.4790 c3        1 MOL     -0.162264
     74 C24        -4.9470   -4.5590    1.3880 c         1 MOL      0.623981
     75 O13        -4.8680   -5.6560    1.9130 o         1 MOL     -0.585837
     76 H32        -6.1540   -1.7980    0.7130 hn        1 MOL      0.230113
     77 H33        -7.1630   -4.3320    1.5010 h1        1 MOL      0.082499
     78 H34        -6.1950   -3.1900    2.3940 h1        1 MOL      0.082499
     79 N8         -3.9380   -4.1120    0.6210 n         1 MOL     -0.257865
     80 C25        -2.5210   -4.6210    0.7080 c3        1 MOL     -0.169161
     81 C26        -1.4910   -3.5090    0.8540 c         1 MOL      0.658143
     82 O14        -1.7830   -2.3200    0.6070 o         1 MOL     -0.657390
     83 C27        -2.2030   -5.3160   -0.5970 c3        1 MOL      0.393372
     84 C28        -2.8600   -6.6650   -0.6620 c3        1 MOL     -0.397262
     85 O15        -2.7530   -4.4770   -1.6120 oh        1 MOL     -0.577738
     86 H35        -4.0990   -3.2430    0.1180 hn        1 MOL      0.219617
     87 H36        -2.4290   -5.2530    1.5900 h1        1 MOL      0.093588
     88 H37        -1.1170   -5.4480   -0.6900 h1        1 MOL      0.003099
     89 H38        -3.1920   -3.7610   -1.1520 ho        1 MOL      0.348704
     90 H39        -2.3220   -7.3550   -0.0230 hc        1 MOL      0.102531
     91 H40        -3.9350   -6.7100   -0.4890 hc        1 MOL      0.102531
     92 H41        -2.6750   -7.1740   -1.6040 hc        1 MOL      0.102531
     93 N9         -0.3180   -3.9680    1.2590 n         1 MOL     -0.589379
     94 C29         0.8100   -3.0450    1.6140 c3        1 MOL     -0.002333
     95 C30         2.0170   -3.5840    0.8220 c         1 MOL      0.358317
     96 O16         2.3580   -4.8250    0.9350 o         1 MOL     -0.539110
     97 C31         1.0750   -3.0410    3.1360 c3        1 MOL      0.125699
     98 C32        -0.1200   -2.4960    3.8940 c3        1 MOL      0.192182
     99 C33         2.4530   -2.4180    3.5330 c3        1 MOL     -0.256843
    100 C34        -0.2250   -2.7350    5.3860 c3        1 MOL     -0.254120
    101 H42        -0.2130   -4.9590    1.3980 hn        1 MOL      0.332141
    102 H43         0.5680   -2.0600    1.2360 h1        1 MOL      0.067741
    103 H44         1.1780   -4.0460    3.5390 hc        1 MOL      0.018704
    104 H45        -1.0600   -2.8330    3.4610 hc        1 MOL     -0.014530
    105 H46        -0.0950   -1.4110    3.8210 hc        1 MOL     -0.014530
    106 H47         3.2760   -2.6970    2.8760 hc        1 MOL      0.038101
    107 H48         2.5020   -1.3350    3.4780 hc        1 MOL      0.038101
    108 H49         2.6850   -2.7880    4.5270 hc        1 MOL      0.038101
    109 H50        -1.1200   -2.3600    5.8760 hc        1 MOL      0.053840
    110 H51        -0.2200   -3.8160    5.5090 hc        1 MOL      0.053840
    111 H52         0.6630   -2.3600    5.9000 hc        1 MOL      0.053840
    112 N10         2.6450   -2.6740    0.0870 n         1 MOL     -0.068586
    113 C35         3.7290   -2.9300   -0.8950 c3        1 MOL      0.031683
    114 C36         5.0530   -2.7250   -0.1020 c         1 MOL      0.236153
    115 O17         5.0460   -1.9870    0.8730 o         1 MOL     -0.184878
    116 C37         3.6960   -2.0310   -2.0840 c3        1 MOL     -0.048747
    117 C38         2.3810   -2.2250   -2.8360 c3        1 MOL     -0.253457
    118 O18         4.0580   -0.7890   -1.8020 oh        1 MOL     -0.252571
    119 H53         2.1410   -1.8130   -0.0740 hn        1 MOL      0.296661
    120 H54         3.6200   -3.9690   -1.2030 h1        1 MOL      0.079169
    121 H55         4.4740   -2.3140   -2.7970 h1        1 MOL      0.040647
    122 H56         3.4810   -0.1830   -2.2800 ho        1 MOL      0.393277
    123 H57         2.4990   -3.1770   -3.3610 hc        1 MOL      0.077969
    124 H58         1.5140   -2.3150   -2.1880 hc        1 MOL      0.077969
    125 H59         2.1550   -1.4270   -3.5460 hc        1 MOL      0.077969
    126 N11         6.2770   -3.0980   -0.5460 n         1 MOL     -0.269181
    127 C39         7.5480   -2.5420   -0.1030 c3        1 MOL     -0.356362
    128 C40         7.7670   -1.0440   -0.2760 c         1 MOL      0.386976
    129 O19         8.4600   -0.2850    0.4730 o         1 MOL     -0.482220
    130 C41         8.7100   -3.1860   -0.8570 c3        1 MOL      0.435150
    131 C42         9.0720   -4.5540   -0.5370 c3        1 MOL     -0.373869
    132 O20         8.5680   -3.0660   -2.2050 oh        1 MOL     -0.629856
    133 H60         6.4000   -3.7800   -1.2840 hn        1 MOL      0.291595
    134 H61         7.6510   -2.7620    0.9610 h1        1 MOL      0.217605
    135 H62         9.5850   -2.5690   -0.6820 h1        1 MOL      0.019240
    136 H63         9.3480   -2.6180   -2.5250 ho        1 MOL      0.407195
    137 H64         9.2590   -4.5280    0.5420 hc        1 MOL      0.100632
    138 H65         8.3560   -5.3450   -0.7120 hc        1 MOL      0.100632
    139 H66         9.8760   -5.0060   -1.1190 hc        1 MOL      0.100632
    140 N12         7.0350   -0.4640   -1.2120 n         1 MOL     -0.239904
    141 C43         7.0230    1.0000   -1.3930 c3        1 MOL      0.038961
    142 C44         6.3180    1.6520   -0.2510 c         1 MOL      0.223252
    143 O21         6.9390    2.4040    0.4780 o         1 MOL     -0.449109
    144 C45         6.3880    1.4040   -2.7610 c3        1 MOL      0.138000
    145 C46         6.2090    2.8750   -3.1030 c3        1 MOL     -0.125922
    146 C47         5.7990    2.9410   -4.5330 c3        1 MOL      0.162384
    147 C48         5.4850    4.3500   -5.1260 c3        1 MOL     -0.039618
    148 N13         4.6190    4.3120   -6.3740 n4        1 MOL     -0.395683
    149 H67         6.4590   -1.0730   -1.7770 hn        1 MOL      0.200043
    150 H68         8.0500    1.3490   -1.3280 h1        1 MOL      0.111306
    151 H69         5.4210    0.9220   -2.8960 hc        1 MOL     -0.050685
    152 H70         7.0930    0.9090   -3.4300 hc        1 MOL     -0.050685
    153 H71         7.1500    3.4250   -3.0070 hc        1 MOL      0.039816
    154 H72         5.3990    3.2220   -2.4600 hc        1 MOL      0.039816
    155 H73         4.9890    2.2510   -4.7700 hc        1 MOL     -0.008298
    156 H74         6.6520    2.5580   -5.0920 hc        1 MOL     -0.008298
    157 H75         6.4360    4.7850   -5.4220 hx        1 MOL      0.102712
    158 H76         4.9860    4.9210   -4.3430 hx        1 MOL      0.102712
    159 H77         5.1140    3.9060   -7.1560 hn        1 MOL      0.327935
    160 H78         3.6860    3.9650   -6.1700 hn        1 MOL      0.327935
    161 H79         4.3590    5.2390   -6.6790 hn        1 MOL      0.327935
    162 N14         5.1050    1.1600    0.0890 n         1 MOL      0.024597
    163 C49         4.3540    1.5330    1.3140 c3        1 MOL     -0.167775
    164 C50         5.1240    1.1900    2.5790 c         1 MOL      0.409932
    165 O22         5.1760    2.0150    3.4860 o         1 MOL     -0.554519
    166 C51         2.8830    0.9620    1.1790 c3        1 MOL      0.140501
    167 C52         1.9810    1.6780    0.0840 c3        1 MOL     -0.253739
    168 C53         0.6960    0.8440   -0.2640 c         1 MOL      0.670555
    169 O23        -0.3810    1.3960   -0.5780 o         1 MOL     -0.711843
    170 O24         0.6600   -0.4210   -0.4050 o         1 MOL     -0.711843
    171 H80         4.8710    0.3180   -0.4250 hn        1 MOL     -0.107682
    172 H81         4.0660    2.5830    1.3000 h1        1 MOL      0.105821
    173 H82         2.3320    1.0520    2.1230 hc        1 MOL      0.006685
    174 H83         2.9720   -0.0920    0.9380 hc        1 MOL      0.006685
    175 H84         2.4830    1.8240   -0.8660 hc        1 MOL      0.039240
    176 H85         1.6140    2.6020    0.5520 hc        1 MOL      0.039240
    177 N15         5.8930    0.0680    2.6740 n         1 MOL      0.127358
    178 C54         6.7210   -0.2080    3.7970 c3        1 MOL     -0.323002
    179 H86         7.5430   -0.8560    3.4910 h1        1 MOL      0.102415
    180 H87         7.1220    0.7250    4.1910 h1        1 MOL      0.102415
    181 H88         6.1330   -0.7070    4.5670 h1        1 MOL      0.102415
    182 H89         5.6980   -0.7170    2.0810 hn        1 MOL      0.005211
    183 Ca1        -1.8940   -0.4620   -1.2660 Ca        1 MOL      1.757830
    184 O25        -0.7580    0.1690   -3.6850 oh        1 MOL     -0.814855
    185 H90        -1.2650    0.9040   -4.0100 ho        1 MOL      0.380651
    186 H91        -0.1190   -0.0190   -4.3770 ho        1 MOL      0.380651
    187 O26        -1.0460   -2.6780   -2.7730 oh        1 MOL     -0.814855
    188 H92        -1.6380   -3.4170   -2.7000 ho        1 MOL      0.380651
    189 H93        -0.5280   -2.8600   -3.5530 ho        1 MOL      0.380651
@<TRIPOS>BOND
     1    1    2 1   
     2    1    4 1   
     3    1    5 1   
     4    1    6 1   
     5    2    3 2   
     6    2    7 1   
     7    7    8 1   
     8    7   15 1   
     9    8    9 1   
    10    8   11 1   
    11    8   16 1   
    12    9   10 2   
    13    9   19 1   
    14   11   12 1   
    15   11   17 1   
    16   11   18 1   
    17   12   13 1   
    18   12   14 1   
    19   19   20 1   
    20   19   28 1   
    21   20   21 1   
    22   20   23 1   
    23   20   29 1   
    24   21   22 2   
    25   21   41 1   
    26   23   24 1   
    27   23   30 1   
    28   23   31 1   
    29   24   25 1   
    30   24   32 1   
    31   24   33 1   
    32   25   26 1   
    33   25   34 1   
    34   25   35 1   
    35   26   27 1   
    36   26   36 1   
    37   26   37 1   
    38   27   38 1   
    39   27   39 1   
    40   27   40 1   
    41   41   42 1   
    42   41   49 1   
    43   42   43 1   
    44   42   45 1   
    45   42   50 1   
    46   43   44 2   
    47   43   53 1   
    48   45   46 1   
    49   45   51 1   
    50   45   52 1   
    51   46   47 1   
    52   46   48 1   
    53   53   54 1   
    54   53   57 1   
    55   54   55 1   
    56   54   58 1   
    57   54   59 1   
    58   55   56 2   
    59   55   60 1   
    60   60   61 1   
    61   60   68 1   
    62   61   62 1   
    63   61   64 1   
    64   61   69 1   
    65   62   63 2   
    66   62   72 1   
    67   64   65 1   
    68   64   70 1   
    69   64   71 1   
    70   65   66 1   
    71   65   67 1   
    72   72   73 1   
    73   72   76 1   
    74   73   74 1   
    75   73   77 1   
    76   73   78 1   
    77   74   75 2   
    78   74   79 1   
    79   79   80 1   
    80   79   86 1   
    81   80   81 1   
    82   80   83 1   
    83   80   87 1   
    84   81   82 2   
    85   81   93 1   
    86   83   84 1   
    87   83   85 1   
    88   83   88 1   
    89   84   90 1   
    90   84   91 1   
    91   84   92 1   
    92   85   89 1   
    93   93   94 1   
    94   93  101 1   
    95   94   95 1   
    96   94   97 1   
    97   94  102 1   
    98   95   96 2   
    99   95  112 1   
   100   97   98 1   
   101   97   99 1   
   102   97  103 1   
   103   98  100 1   
   104   98  104 1   
   105   98  105 1   
   106   99  106 1   
   107   99  107 1   
   108   99  108 1   
   109  100  109 1   
   110  100  110 1   
   111  100  111 1   
   112  112  113 1   
   113  112  119 1   
   114  113  114 1   
   115  113  116 1   
   116  113  120 1   
   117  114  115 2   
   118  114  126 1   
   119  116  117 1   
   120  116  118 1   
   121  116  121 1   
   122  117  123 1   
   123  117  124 1   
   124  117  125 1   
   125  118  122 1   
   126  126  127 1   
   127  126  133 1   
   128  127  128 1   
   129  127  130 1   
   130  127  134 1   
   131  128  129 2   
   132  128  140 1   
   133  130  131 1   
   134  130  132 1   
   135  130  135 1   
   136  131  137 1   
   137  131  138 1   
   138  131  139 1   
   139  132  136 1   
   140  140  141 1   
   141  140  149 1   
   142  141  142 1   
   143  141  144 1   
   144  141  150 1   
   145  142  143 2   
   146  142  162 1   
   147  144  145 1   
   148  144  151 1   
   149  144  152 1   
   150  145  146 1   
   151  145  153 1   
   152  145  154 1   
   153  146  147 1   
   154  146  155 1   
   155  146  156 1   
   156  147  148 1   
   157  147  157 1   
   158  147  158 1   
   159  148  159 1   
   160  148  160 1   
   161  148  161 1   
   162  162  163 1   
   163  162  171 1   
   164  163  164 1   
   165  163  166 1   
   166  163  172 1   
   167  164  165 2   
   168  164  177 1   
   169  166  167 1   
   170  166  173 1   
   171  166  174 1   
   172  167  168 1   
   173  167  175 1   
   174  167  176 1   
   175  168  169 1   
   176  168  170 1   
   177  177  178 1   
   178  177  182 1   
   179  178  179 1   
   180  178  180 1   
   181  178  181 1   
   182  184  185 1   
   183  184  186 1   
   184  187  188 1   
   185  187  189 1   
@<TRIPOS>SUBSTRUCTURE
     1 MOL         1 TEMP              0 ****  ****    0 ROOT
