@<TRIPOS>MOLECULE
MOL
  183   181     1     0     0
SMALL
resp


@<TRIPOS>ATOM
      1 C1          0.8890   -1.8210    6.2380 c3        1 MOL     -0.311560
      2 C2          1.1020   -1.8960    4.7250 c         1 MOL      0.758945
      3 O1          0.3120   -2.4420    3.9500 o         1 MOL     -0.579250
      4 H1          1.2300   -0.8520    6.6050 hc        1 MOL      0.068995
      5 H2         -0.1710   -1.9410    6.4630 hc        1 MOL      0.068995
      6 H3          1.4560   -2.6140    6.7260 hc        1 MOL      0.068995
      7 N1          2.2360   -1.3470    4.3180 n         1 MOL     -0.617515
      8 C3          2.7000   -1.4120    2.9150 c3        1 MOL     -0.015951
      9 C4          2.9750   -2.8310    2.5400 c         1 MOL      0.663243
     10 O2          3.7350   -3.5290    3.2820 o         1 MOL     -0.619942
     11 C5          3.9410   -0.5230    2.7000 c3        1 MOL     -0.097623
     12 C6          4.6100   -0.8230    1.3860 c         1 MOL      0.516582
     13 O3          5.8270   -0.9560    1.3850 o         1 MOL     -0.583669
     14 O4          3.8950   -0.8860    0.3690 o         1 MOL     -0.583669
     15 H4          2.7360   -0.6730    4.8940 hn        1 MOL      0.328125
     16 H5          1.9520   -1.0960    2.1860 h1        1 MOL      0.035939
     17 H6          4.6300   -0.6650    3.5230 hc        1 MOL      0.050959
     18 H7          3.6390    0.5210    2.7680 hc        1 MOL      0.050959
     19 N2          2.4700   -3.2460    1.3990 n         1 MOL     -0.108685
     20 C7          2.3900   -4.6910    1.0170 c3        1 MOL     -0.406779
     21 C8          3.3110   -5.0250   -0.2510 c         1 MOL      0.709859
     22 O5          3.4880   -6.1570   -0.5950 o         1 MOL     -0.566329
     23 C9          0.9170   -5.1030    0.8720 c3        1 MOL      0.192161
     24 C10         0.5860   -6.5940    1.2590 c3        1 MOL      0.033675
     25 C11         0.4640   -4.9200   -0.5890 c3        1 MOL     -0.229786
     26 C12        -0.8860   -7.0150    1.2220 c3        1 MOL     -0.089653
     27 H8          1.9830   -2.6080    0.8000 hn        1 MOL      0.123558
     28 H9          2.8370   -5.2760    1.8120 h1        1 MOL      0.126042
     29 H10         0.2990   -4.4330    1.4820 hc        1 MOL      0.026629
     30 H11         0.9820   -6.8480    2.2430 hc        1 MOL     -0.009683
     31 H12         1.1500   -7.2120    0.5630 hc        1 MOL     -0.009683
     32 H13         0.8640   -4.0030   -1.0410 hc        1 MOL      0.067807
     33 H14         0.9160   -5.7040   -1.1940 hc        1 MOL      0.067807
     34 H15        -0.6130   -5.0540   -0.7190 hc        1 MOL      0.067807
     35 H16        -1.1080   -7.5860    0.3120 hc        1 MOL      0.012649
     36 H17        -1.0230   -7.7550    2.0130 hc        1 MOL      0.012649
     37 H18        -1.6430   -6.2390    1.2960 hc        1 MOL      0.012649
     38 N3          3.9070   -4.0210   -0.9200 n         1 MOL     -0.607162
     39 C13         4.6740   -4.1270   -2.1710 c3        1 MOL      0.292713
     40 C14         6.0570   -3.4610   -2.0620 c         1 MOL      0.439109
     41 O6          6.8870   -3.8450   -2.8610 o         1 MOL     -0.596997
     42 C15         3.8220   -3.6720   -3.3680 c3        1 MOL     -0.183019
     43 C16         3.4290   -2.2580   -3.2290 c         1 MOL      0.773504
     44 O7          4.2850   -1.3690   -3.0470 o         1 MOL     -0.763546
     45 O8          2.2170   -1.9970   -3.1260 o         1 MOL     -0.763546
     46 H19         3.5040   -3.1150   -0.7400 hn        1 MOL      0.279370
     47 H20         4.8580   -5.1880   -2.3340 h1        1 MOL      0.013515
     48 H21         2.9010   -4.2390   -3.3440 hc        1 MOL      0.029528
     49 H22         4.4410   -3.8820   -4.2390 hc        1 MOL      0.029528
     50 N4          6.3090   -2.6270   -1.1330 n         1 MOL     -0.148607
     51 C17         7.6840   -2.4000   -0.5560 c3        1 MOL     -0.132305
     52 C18         8.2130   -1.0070   -0.7930 c         1 MOL      0.564056
     53 O9          9.4250   -0.6910   -0.7000 o         1 MOL     -0.626230
     54 H23         5.5460   -2.3040   -0.5560 hn        1 MOL      0.140708
     55 H24         8.3640   -3.1640   -0.9330 h1        1 MOL      0.086236
     56 H25         7.7250   -2.5970    0.5150 h1        1 MOL      0.086236
     57 N5          7.2930   -0.1420   -1.2040 n         1 MOL     -0.322976
     58 C19         7.6280    1.3060   -1.3050 c3        1 MOL      0.075284
     59 C20         7.3690    2.1870   -0.0600 c         1 MOL      0.333391
     60 O10         7.6640    3.4050   -0.0060 o         1 MOL     -0.570172
     61 C21         6.9640    1.8370   -2.6080 c3        1 MOL     -0.217483
     62 C22         5.4450    1.9290   -2.5480 c         1 MOL      0.811362
     63 O11         4.8990    2.3220   -3.5980 o         1 MOL     -0.702506
     64 O12         4.7820    1.5290   -1.5260 o         1 MOL     -0.702506
     65 H26         6.3300   -0.4150   -1.1320 hn        1 MOL      0.187018
     66 H27         8.6890    1.4200   -1.5480 h1        1 MOL      0.106546
     67 H28         7.3370    1.2100   -3.4290 hc        1 MOL      0.055311
     68 H29         7.3950    2.8000   -2.8790 hc        1 MOL      0.055311
     69 N6          6.8930    1.6390    1.0430 n         1 MOL     -0.118048
     70 C23         6.5880    2.3750    2.2530 c3        1 MOL     -0.137726
     71 C24         5.2560    3.1740    2.2100 c         1 MOL      0.459577
     72 O13         4.7560    3.5200    3.2930 o         1 MOL     -0.578175
     73 H30         6.6120    0.6800    1.0560 hn        1 MOL      0.155709
     74 H31         7.3870    3.0970    2.4610 h1        1 MOL      0.094324
     75 H32         6.6690    1.7270    3.1280 h1        1 MOL      0.094324
     76 N7          4.5530    3.3480    1.0530 n         1 MOL     -0.267931
     77 C25         3.3040    4.0300    0.8520 c3        1 MOL      0.152561
     78 C26         2.0590    3.1570    0.6490 c         1 MOL      0.541412
     79 O14         2.1450    2.1360   -0.0630 o         1 MOL     -0.644491
     80 C27         3.4180    5.0820   -0.2280 c3        1 MOL      0.057981
     81 C28         4.3280    6.2250    0.2030 c3        1 MOL     -0.318774
     82 C29         4.0380    7.5320   -0.6400 c         1 MOL      0.752047
     83 N8          4.7000    8.6150   -0.3070 n         1 MOL     -0.843716
     84 O15         3.2090    7.6070   -1.5190 o         1 MOL     -0.572112
     85 H33         4.9280    2.7710    0.3150 hn        1 MOL      0.204769
     86 H34         3.0520    4.5210    1.7860 h1        1 MOL      0.001984
     87 H35         2.4900    5.5970   -0.4480 hc        1 MOL      0.016272
     88 H36         3.6420    4.5730   -1.1620 hc        1 MOL      0.016272
     89 H37         5.3880    6.1160   -0.0020 hc        1 MOL      0.086289
     90 H38         4.1000    6.4600    1.2420 hc        1 MOL      0.086289
     91 H39         5.4070    8.6250    0.4180 hn        1 MOL      0.355944
     92 H40         4.6410    9.3910   -0.9450 hn        1 MOL      0.355944
     93 N9          0.8640    3.4890    1.1220 n         1 MOL     -0.491728
     94 C30        -0.2520    2.5820    1.3550 c3        1 MOL      0.023573
     95 C31        -1.5890    3.0730    0.7480 c         1 MOL      0.473698
     96 O16        -2.1720    4.0830    1.1860 o         1 MOL     -0.547268
     97 C32        -0.3710    2.3000    2.8570 c3        1 MOL      0.109102
     98 C33        -1.6420    1.6010    3.3140 c3        1 MOL     -0.203879
     99 C34         0.7650    1.3870    3.4420 c3        1 MOL     -0.203879
    100 H41         0.8080    4.3680    1.6220 hn        1 MOL      0.285292
    101 H42        -0.0050    1.6610    0.8330 h1        1 MOL      0.186780
    102 H43        -0.3480    3.2870    3.3310 hc        1 MOL      0.009101
    103 H44        -1.6280    1.5180    4.4030 hc        1 MOL      0.043268
    104 H45        -2.4420    2.3310    3.1660 hc        1 MOL      0.043268
    105 H46        -1.8610    0.7110    2.7320 hc        1 MOL      0.043268
    106 H47         0.8760    1.6350    4.4960 hc        1 MOL      0.043268
    107 H48         0.5900    0.3430    3.1770 hc        1 MOL      0.043268
    108 H49         1.6530    1.6410    2.8630 hc        1 MOL      0.043268
    109 N10        -1.9950    2.3520   -0.3130 n         1 MOL     -0.339752
    110 C35        -3.2960    2.5640   -0.9390 c3        1 MOL      0.071897
    111 C36        -4.4290    2.1260   -0.0010 c         1 MOL      0.368859
    112 O17        -4.0770    1.3240    0.8740 o         1 MOL     -0.325617
    113 C37        -3.3180    1.7250   -2.2590 c3        1 MOL     -0.221903
    114 C38        -4.4730    2.0540   -3.1510 c         1 MOL      0.650598
    115 N11        -4.3780    3.2830   -3.6160 n         1 MOL     -0.763703
    116 O18        -5.5060    1.4170   -3.2320 o         1 MOL     -0.530215
    117 H50        -1.3930    1.6040   -0.6240 hn        1 MOL      0.225425
    118 H51        -3.4400    3.6060   -1.2150 h1        1 MOL      0.040024
    119 H52        -3.2870    0.6780   -1.9770 hc        1 MOL      0.110098
    120 H53        -2.4160    1.9740   -2.8290 hc        1 MOL      0.110098
    121 H54        -3.5740    3.8950   -3.5400 hn        1 MOL      0.348027
    122 H55        -5.1770    3.6070   -4.1440 hn        1 MOL      0.348027
    123 N12        -5.6320    2.4640   -0.3440 n         1 MOL     -0.484974
    124 C39        -6.8770    1.9180    0.3110 c3        1 MOL      0.234640
    125 C40        -6.8440    0.3810    0.1600 c         1 MOL      0.583960
    126 O19        -7.0350   -0.2530    1.1680 o         1 MOL     -0.556334
    127 C41        -8.0960    2.5350   -0.4320 c3        1 MOL     -0.212170
    128 C42        -9.4260    2.0780    0.0910 ca        1 MOL     -0.054036
    129 C43        -9.6700    2.2340    1.4730 ca        1 MOL     -0.049184
    130 C44       -10.3950    1.5270   -0.8010 ca        1 MOL     -0.049184
    131 C45       -10.9430    1.8630    1.9920 ca        1 MOL     -0.386073
    132 C46       -11.6850    1.2510   -0.3140 ca        1 MOL     -0.386073
    133 C47       -11.9320    1.4010    1.0920 ca        1 MOL      0.462590
    134 O20       -13.1520    1.0790    1.5320 oh        1 MOL     -0.544201
    135 H56        -5.7150    3.0140   -1.1810 hn        1 MOL      0.250457
    136 H57        -6.8150    2.1660    1.3750 h1        1 MOL      0.052953
    137 H58        -7.9880    2.3910   -1.4990 hc        1 MOL      0.080991
    138 H59        -8.1320    3.5950   -0.1960 hc        1 MOL      0.080991
    139 H60        -8.9150    2.6040    2.1550 ha        1 MOL      0.123354
    140 H61       -10.2420    1.5290   -1.8750 ha        1 MOL      0.123354
    141 H62       -11.1850    1.8560    3.0460 ha        1 MOL      0.175784
    142 H63       -12.3850    0.8090   -1.0000 ha        1 MOL      0.175784
    143 H64       -13.7020    0.6300    0.8870 ho        1 MOL      0.377456
    144 N13        -6.6320   -0.2970   -0.9690 n         1 MOL     -0.508981
    145 C48        -6.3760   -1.7570   -1.0640 c3        1 MOL      0.060341
    146 C49        -5.3760   -2.3160   -0.0860 c         1 MOL      0.339273
    147 O21        -5.5190   -3.5080    0.3070 o         1 MOL     -0.528190
    148 C50        -5.9810   -2.0920   -2.4760 c3        1 MOL      0.122736
    149 C51        -7.0830   -1.8690   -3.4790 c3        1 MOL     -0.103824
    150 C52        -7.0010   -2.4490   -4.8920 c         1 MOL      0.688922
    151 O22        -7.0690   -1.7560   -5.9190 o         1 MOL     -0.736366
    152 O23        -6.7830   -3.6840   -4.9740 o         1 MOL     -0.736366
    153 H65        -6.7270    0.2610   -1.8060 hn        1 MOL      0.324697
    154 H66        -7.2820   -2.2840   -0.7690 h1        1 MOL      0.096181
    155 H67        -5.7370   -3.1540   -2.4620 hc        1 MOL     -0.007057
    156 H68        -5.0910   -1.5380   -2.7750 hc        1 MOL     -0.007057
    157 H69        -7.3970   -0.8210   -3.5270 hc        1 MOL     -0.043306
    158 H70        -7.9180   -2.3570   -2.9780 hc        1 MOL     -0.043306
    159 N14        -4.3630   -1.5880    0.3990 n         1 MOL     -0.120339
    160 C53        -3.2880   -2.1640    1.2590 c3        1 MOL     -0.123755
    161 C54        -3.6190   -2.0070    2.7460 c         1 MOL      0.418065
    162 O24        -3.3410   -2.9040    3.5560 o         1 MOL     -0.549941
    163 C55        -1.9440   -1.5490    0.9670 c3        1 MOL      0.025596
    164 C56        -1.4690   -1.7330   -0.5140 c3        1 MOL      0.072892
    165 C57        -0.1180   -0.9840   -0.7270 c         1 MOL      0.652371
    166 O25         0.9360   -1.2770   -0.0970 o         1 MOL     -0.739927
    167 O26        -0.1320    0.0110   -1.4760 o         1 MOL     -0.739927
    168 H71        -4.2280   -0.7210   -0.0850 hn        1 MOL      0.120990
    169 H72        -3.1700   -3.2120    0.9810 h1        1 MOL      0.139688
    170 H73        -1.2370   -1.8660    1.7360 hc        1 MOL      0.051275
    171 H74        -2.0670   -0.4760    1.1660 hc        1 MOL      0.051275
    172 H75        -2.2660   -1.3330   -1.1370 hc        1 MOL     -0.031619
    173 H76        -1.4060   -2.7530   -0.8930 hc        1 MOL     -0.031619
    174 N15        -4.3310   -0.9380    3.0600 n         1 MOL      0.000654
    175 C58        -4.8200   -0.6730    4.3950 c3        1 MOL     -0.224501
    176 H77        -4.2340    0.1290    4.8430 h1        1 MOL      0.077852
    177 H78        -5.8670   -0.3740    4.3470 h1        1 MOL      0.077852
    178 H79        -4.7260   -1.5730    5.0030 h1        1 MOL      0.077852
    179 H80        -4.5040   -0.2500    2.3340 hn        1 MOL      0.041560
    180 Ca1         2.5270    0.0880   -1.6100 Ca        1 MOL      1.741158
    181 O27         2.4890    1.6560   -3.7570 oh        1 MOL     -0.979132
    182 H81         3.4050    1.9400   -3.7250 ho        1 MOL      0.436996
    183 H82         2.1730    1.9690   -4.6040 ho        1 MOL      0.436996
@<TRIPOS>BOND
     1    1    2 1   
     2    1    4 1   
     3    1    5 1   
     4    1    6 1   
     5    2    3 2   
     6    2    7 1   
     7    7    8 1   
     8    7   15 1   
     9    8    9 1   
    10    8   11 1   
    11    8   16 1   
    12    9   10 2   
    13    9   19 1   
    14   11   12 1   
    15   11   17 1   
    16   11   18 1   
    17   12   13 1   
    18   12   14 1   
    19   19   20 1   
    20   19   27 1   
    21   20   21 1   
    22   20   23 1   
    23   20   28 1   
    24   21   22 2   
    25   21   38 1   
    26   23   24 1   
    27   23   25 1   
    28   23   29 1   
    29   24   26 1   
    30   24   30 1   
    31   24   31 1   
    32   25   32 1   
    33   25   33 1   
    34   25   34 1   
    35   26   35 1   
    36   26   36 1   
    37   26   37 1   
    38   38   39 1   
    39   38   46 1   
    40   39   40 1   
    41   39   42 1   
    42   39   47 1   
    43   40   41 2   
    44   40   50 1   
    45   42   43 1   
    46   42   48 1   
    47   42   49 1   
    48   43   44 1   
    49   43   45 1   
    50   50   51 1   
    51   50   54 1   
    52   51   52 1   
    53   51   55 1   
    54   51   56 1   
    55   52   53 2   
    56   52   57 1   
    57   57   58 1   
    58   57   65 1   
    59   58   59 1   
    60   58   61 1   
    61   58   66 1   
    62   59   60 2   
    63   59   69 1   
    64   61   62 1   
    65   61   67 1   
    66   61   68 1   
    67   62   63 1   
    68   62   64 1   
    69   69   70 1   
    70   69   73 1   
    71   70   71 1   
    72   70   74 1   
    73   70   75 1   
    74   71   72 2   
    75   71   76 1   
    76   76   77 1   
    77   76   85 1   
    78   77   78 1   
    79   77   80 1   
    80   77   86 1   
    81   78   79 2   
    82   78   93 1   
    83   80   81 1   
    84   80   87 1   
    85   80   88 1   
    86   81   82 1   
    87   81   89 1   
    88   81   90 1   
    89   82   83 1   
    90   82   84 2   
    91   83   91 1   
    92   83   92 1   
    93   93   94 1   
    94   93  100 1   
    95   94   95 1   
    96   94   97 1   
    97   94  101 1   
    98   95   96 2   
    99   95  109 1   
   100   97   98 1   
   101   97   99 1   
   102   97  102 1   
   103   98  103 1   
   104   98  104 1   
   105   98  105 1   
   106   99  106 1   
   107   99  107 1   
   108   99  108 1   
   109  109  110 1   
   110  109  117 1   
   111  110  111 1   
   112  110  113 1   
   113  110  118 1   
   114  111  112 2   
   115  111  123 1   
   116  113  114 1   
   117  113  119 1   
   118  113  120 1   
   119  114  115 1   
   120  114  116 2   
   121  115  121 1   
   122  115  122 1   
   123  123  124 1   
   124  123  135 1   
   125  124  125 1   
   126  124  127 1   
   127  124  136 1   
   128  125  126 2   
   129  125  144 1   
   130  127  128 1   
   131  127  137 1   
   132  127  138 1   
   133  128  129 ar  
   134  128  130 ar  
   135  129  131 ar  
   136  129  139 1   
   137  130  132 ar  
   138  130  140 1   
   139  131  133 ar  
   140  131  141 1   
   141  132  133 ar  
   142  132  142 1   
   143  133  134 1   
   144  134  143 1   
   145  144  145 1   
   146  144  153 1   
   147  145  146 1   
   148  145  148 1   
   149  145  154 1   
   150  146  147 2   
   151  146  159 1   
   152  148  149 1   
   153  148  155 1   
   154  148  156 1   
   155  149  150 1   
   156  149  157 1   
   157  149  158 1   
   158  150  151 1   
   159  150  152 1   
   160  159  160 1   
   161  159  168 1   
   162  160  161 1   
   163  160  163 1   
   164  160  169 1   
   165  161  162 2   
   166  161  174 1   
   167  163  164 1   
   168  163  170 1   
   169  163  171 1   
   170  164  165 1   
   171  164  172 1   
   172  164  173 1   
   173  165  166 1   
   174  165  167 1   
   175  174  175 1   
   176  174  179 1   
   177  175  176 1   
   178  175  177 1   
   179  175  178 1   
   180  181  182 1   
   181  181  183 1   
@<TRIPOS>SUBSTRUCTURE
     1 MOL         1 TEMP              0 ****  ****    0 ROOT
