@<TRIPOS>MOLECULE
MOL
  189   185     1     0     0
SMALL
resp


@<TRIPOS>ATOM
      1 C1         -0.6420    1.6400    6.4910 c3        1 MOL     -0.463126
      2 C2         -0.7260    1.8030    4.9840 c         1 MOL      0.757306
      3 O1         -0.3720    0.9340    4.1630 o         1 MOL     -0.627677
      4 H1          0.3950    1.4660    6.7800 hc        1 MOL      0.121257
      5 H2         -1.0070    2.5450    6.9770 hc        1 MOL      0.121257
      6 H3         -1.2510    0.7910    6.8000 hc        1 MOL      0.121257
      7 N1         -1.2950    2.9530    4.6030 n         1 MOL     -0.636152
      8 C3         -1.8660    3.0490    3.2530 c3        1 MOL      0.301567
      9 C4         -1.6540    4.4420    2.6090 c         1 MOL      0.373959
     10 O2         -1.7150    5.4830    3.2090 o         1 MOL     -0.547805
     11 C5         -3.2830    2.6210    3.3060 c3        1 MOL     -0.034748
     12 C6         -4.0700    2.7180    2.0260 c         1 MOL      0.546986
     13 O3         -4.8690    3.6320    1.8340 o         1 MOL     -0.597189
     14 O4         -3.8190    1.8340    1.1340 o         1 MOL     -0.597189
     15 H4         -1.5570    3.6370    5.2980 hn        1 MOL      0.335583
     16 H5         -1.2610    2.3440    2.6850 h1        1 MOL     -0.034352
     17 H6         -3.7590    3.1680    4.1220 hc        1 MOL     -0.034101
     18 H7         -3.3050    1.5620    3.5390 hc        1 MOL     -0.034101
     19 N2         -1.4580    4.3860    1.2470 n         1 MOL     -0.032601
     20 C7         -1.3150    5.6610    0.4160 c3        1 MOL     -0.097850
     21 C8         -2.2180    5.5720   -0.7990 c         1 MOL      0.351430
     22 O5         -2.3610    6.5230   -1.6340 o         1 MOL     -0.552946
     23 C9          0.0730    5.9900   -0.0610 c3        1 MOL      0.076919
     24 C10         0.5280    4.9600   -1.1930 c3        1 MOL     -0.100833
     25 C11         0.9450    5.9440    1.1900 c3        1 MOL     -0.072003
     26 C12         2.0320    5.2120   -1.6050 c3        1 MOL     -0.333638
     27 H8         -1.3070    3.4830    0.8290 hn        1 MOL      0.147896
     28 H9         -1.7230    6.5210    0.9590 h1        1 MOL      0.116593
     29 H10         0.1190    7.0130   -0.4280 hc        1 MOL      0.026515
     30 H11        -0.1310    5.0150   -2.0500 hc        1 MOL      0.065272
     31 H12         0.4150    3.9290   -0.8470 hc        1 MOL      0.065272
     32 H13         0.5940    6.6880    1.9090 hc        1 MOL     -0.002143
     33 H14         1.0300    4.9560    1.6480 hc        1 MOL     -0.002143
     34 H15         1.9540    6.1760    0.8690 hc        1 MOL     -0.002143
     35 H16         2.3350    4.7280   -2.5380 hc        1 MOL      0.115118
     36 H17         1.9550    6.2320   -1.9800 hc        1 MOL      0.115118
     37 H18         2.6990    4.9060   -0.7940 hc        1 MOL      0.115118
     38 N3         -2.9420    4.4070   -1.0040 n         1 MOL     -0.177306
     39 C13        -3.7670    4.2720   -2.2840 c3        1 MOL      0.015990
     40 C14        -5.1940    3.6610   -2.1240 c         1 MOL      0.351869
     41 O6         -5.9720    3.6180   -3.0860 o         1 MOL     -0.538008
     42 C15        -3.0520    3.5130   -3.3310 c3        1 MOL     -0.198810
     43 C16        -2.5930    2.1390   -2.8400 c         1 MOL      0.791779
     44 O7         -3.1210    1.5460   -1.8600 o         1 MOL     -0.729191
     45 O8         -1.6980    1.5280   -3.4930 o         1 MOL     -0.729191
     46 H19        -2.7840    3.6130   -0.3990 hn        1 MOL      0.087523
     47 H20        -3.9550    5.2240   -2.7830 h1        1 MOL      0.103453
     48 H21        -2.1800    4.0790   -3.6540 hc        1 MOL      0.064100
     49 H22        -3.6740    3.2690   -4.1860 hc        1 MOL      0.064100
     50 N4         -5.4580    3.2120   -0.8700 n         1 MOL     -0.045346
     51 C17        -6.8510    2.7780   -0.5530 c3        1 MOL     -0.182270
     52 C18        -7.4240    1.3170   -0.9350 c         1 MOL      0.436957
     53 O9         -8.6170    1.0270   -0.8170 o         1 MOL     -0.594916
     54 H23        -4.7830    3.2420   -0.1230 hn        1 MOL      0.035194
     55 H24        -7.6280    3.4880   -0.8320 h1        1 MOL      0.094912
     56 H25        -6.9290    2.8150    0.5300 h1        1 MOL      0.094912
     57 N5         -6.5660    0.4180   -1.3740 n         1 MOL     -0.133825
     58 C19        -6.9520   -0.7560   -2.1850 c3        1 MOL      0.076118
     59 C20        -7.2980   -2.0020   -1.3390 c         1 MOL      0.280682
     60 O10        -7.8190   -3.0870   -1.7980 o         1 MOL     -0.553333
     61 C21        -5.9480   -1.1090   -3.3420 c3        1 MOL     -0.252233
     62 C22        -4.5480   -1.3830   -2.9160 c         1 MOL      0.843470
     63 O11        -4.2530   -1.4030   -1.6680 o         1 MOL     -0.736632
     64 O12        -3.6700   -1.6820   -3.7570 o         1 MOL     -0.736632
     65 H26        -5.6210    0.7570   -1.4320 hn        1 MOL      0.142530
     66 H27        -7.9450   -0.5570   -2.5760 h1        1 MOL      0.079687
     67 H28        -6.0390   -0.3050   -4.0720 hc        1 MOL      0.066004
     68 H29        -6.3360   -2.0340   -3.7900 hc        1 MOL      0.066004
     69 N6         -7.1440   -1.9780   -0.0610 n         1 MOL     -0.017867
     70 C23        -7.4880   -2.9500    0.9870 c3        1 MOL     -0.126824
     71 C24        -6.3710   -4.0050    1.2680 c         1 MOL      0.505706
     72 O13        -6.6490   -5.0970    1.7630 o         1 MOL     -0.576794
     73 H30        -6.9380   -1.0600    0.3040 hn        1 MOL      0.156864
     74 H31        -8.4220   -3.4260    0.6800 h1        1 MOL      0.067088
     75 H32        -7.7140   -2.4570    1.9310 h1        1 MOL      0.067088
     76 N7         -5.1360   -3.7060    0.9360 n         1 MOL     -0.056766
     77 C25        -3.8910   -4.4560    1.2360 c3        1 MOL     -0.210231
     78 C26        -2.5670   -3.6920    1.3000 c         1 MOL      0.789408
     79 O14        -2.5090   -2.6900    0.6120 o         1 MOL     -0.653147
     80 C27        -3.7920   -5.5100    0.0830 c3        1 MOL     -0.036679
     81 C28        -3.8790   -5.0720   -1.3810 c3        1 MOL     -0.050929
     82 C29        -3.7450   -6.2960   -2.3140 c         1 MOL      0.591956
     83 N8         -3.6230   -6.0900   -3.5880 n         1 MOL     -0.722671
     84 O15        -3.9000   -7.4570   -1.9000 o         1 MOL     -0.601797
     85 H33        -4.8610   -2.8030    0.5540 hn        1 MOL      0.027024
     86 H34        -3.9830   -5.0650    2.1410 h1        1 MOL      0.040039
     87 H35        -4.6530   -6.1430    0.2770 hc        1 MOL      0.048018
     88 H36        -2.9350   -6.1560    0.2680 hc        1 MOL      0.048018
     89 H37        -2.9700   -4.5100   -1.5820 hc        1 MOL      0.064218
     90 H38        -4.7230   -4.4500   -1.6480 hc        1 MOL      0.064218
     91 H39        -3.5870   -5.1560   -3.9830 hn        1 MOL      0.342317
     92 H40        -3.4210   -6.8980   -4.1600 hn        1 MOL      0.342317
     93 N9         -1.4980   -4.1340    2.0210 n         1 MOL     -0.656086
     94 C30        -0.2330   -3.3610    2.0550 c3        1 MOL      0.065755
     95 C31         0.7150   -3.7960    0.8720 c         1 MOL      0.700779
     96 O16         0.7730   -4.9900    0.6080 o         1 MOL     -0.616306
     97 C32         0.3860   -3.6070    3.4320 c3        1 MOL     -0.026236
     98 C33         1.9090   -3.5020    3.4530 c3        1 MOL     -0.055585
     99 C34        -0.0980   -2.5820    4.4910 c3        1 MOL     -0.055585
    100 H41        -1.6340   -4.9690    2.5790 hn        1 MOL      0.342647
    101 H42        -0.3970   -2.2950    1.9650 h1        1 MOL      0.183999
    102 H43         0.1210   -4.6090    3.7740 hc        1 MOL      0.020787
    103 H44         2.2700   -2.5800    3.0000 hc        1 MOL      0.005715
    104 H45         2.3300   -3.6500    4.4410 hc        1 MOL      0.005715
    105 H46         2.3310   -4.3270    2.8760 hc        1 MOL      0.005715
    106 H47         0.2170   -2.7520    5.5190 hc        1 MOL      0.005715
    107 H48         0.1800   -1.5590    4.2180 hc        1 MOL      0.005715
    108 H49        -1.1800   -2.5810    4.5680 hc        1 MOL      0.005715
    109 N10         1.3410   -2.9120    0.1060 n         1 MOL     -0.258626
    110 C35         2.4210   -3.2880   -0.8050 c3        1 MOL      0.073024
    111 C36         3.7920   -2.6830   -0.3940 c         1 MOL      0.167578
    112 O17         3.8230   -2.0410    0.6730 o         1 MOL     -0.256376
    113 C37         1.9530   -2.8870   -2.2250 c3        1 MOL     -0.115806
    114 C38         2.6020   -1.6040   -2.5980 c         1 MOL      0.529810
    115 N11         2.3920   -0.5050   -1.8510 n         1 MOL     -0.453012
    116 O18         3.5000   -1.5560   -3.4270 o         1 MOL     -0.587406
    117 H50         1.2900   -1.9330    0.3370 hn        1 MOL     -0.028114
    118 H51         2.4740   -4.3720   -0.8780 h1        1 MOL      0.069182
    119 H52         0.8790   -2.7640   -2.3680 hc        1 MOL      0.066071
    120 H53         2.2000   -3.6440   -2.9640 hc        1 MOL      0.066071
    121 H54         1.6830   -0.5980   -1.1340 hn        1 MOL      0.284550
    122 H55         2.6700    0.4380   -2.0910 hn        1 MOL      0.284550
    123 N12         4.8740   -2.8620   -1.1500 n         1 MOL     -0.139610
    124 C39         6.2390   -2.5890   -0.7540 c3        1 MOL     -0.116486
    125 C40         6.3910   -1.1590   -0.2030 c         1 MOL      0.610930
    126 O19         6.9330   -0.8010    0.8890 o         1 MOL     -0.562540
    127 C41         7.2540   -2.8940   -1.9160 c3        1 MOL     -0.213886
    128 C42         8.6910   -2.4950   -1.6390 ca        1 MOL      0.032878
    129 C43         9.3500   -3.2920   -0.7250 ca        1 MOL     -0.160184
    130 C44         9.3370   -1.3140   -2.1060 ca        1 MOL     -0.160184
    131 C45        10.6060   -2.9580   -0.2220 ca        1 MOL     -0.241371
    132 C46        10.6370   -0.9930   -1.6410 ca        1 MOL     -0.241371
    133 C47        11.2060   -1.7440   -0.6010 ca        1 MOL      0.383176
    134 O20        12.4850   -1.4310   -0.2820 oh        1 MOL     -0.580295
    135 H56         4.6500   -3.2420   -2.0580 hn        1 MOL      0.203996
    136 H57         6.4250   -3.3100    0.0440 h1        1 MOL      0.089208
    137 H58         6.9480   -2.2100   -2.7220 hc        1 MOL      0.100776
    138 H59         7.1980   -3.8860   -2.3770 hc        1 MOL      0.100776
    139 H60         8.8210   -4.1530   -0.3310 ha        1 MOL      0.144094
    140 H61         8.9620   -0.6480   -2.8730 ha        1 MOL      0.144094
    141 H62        11.1200   -3.7430    0.3100 ha        1 MOL      0.132643
    142 H63        11.1310   -0.0870   -1.9640 ha        1 MOL      0.132643
    143 H64        12.7670   -0.5580   -0.5340 ho        1 MOL      0.409517
    144 N13         5.8830   -0.1550   -0.9880 n         1 MOL     -0.214982
    145 C48         6.0620    1.2990   -0.7050 c3        1 MOL      0.013282
    146 C49         5.3990    1.8850    0.5570 c         1 MOL      0.372810
    147 O21         5.5760    3.0670    0.8850 o         1 MOL     -0.526261
    148 C50         5.5090    2.0960   -1.9840 c3        1 MOL     -0.000360
    149 C51         6.2960    3.3620   -2.3140 c3        1 MOL     -0.252787
    150 C52         5.9790    3.9560   -3.6990 c         1 MOL      0.737048
    151 O22         6.5920    3.5640   -4.7080 o         1 MOL     -0.742492
    152 O23         5.2130    4.9340   -3.6630 o         1 MOL     -0.742492
    153 H65         5.3540   -0.4270   -1.7970 hn        1 MOL      0.191254
    154 H66         7.1130    1.5380   -0.6070 h1        1 MOL      0.064440
    155 H67         4.4360    2.3290   -1.9590 hc        1 MOL      0.032016
    156 H68         5.6500    1.4120   -2.8190 hc        1 MOL      0.032016
    157 H69         7.3330    3.0530   -2.4140 hc        1 MOL      0.037412
    158 H70         6.1710    4.1160   -1.5380 hc        1 MOL      0.037412
    159 N14         4.4710    1.0800    1.0380 n         1 MOL      0.043949
    160 C53         3.7740    1.3650    2.2890 c3        1 MOL      0.031536
    161 C54         4.3600    0.6030    3.4500 c         1 MOL      0.404641
    162 O24         4.4540    1.1990    4.4970 o         1 MOL     -0.544319
    163 C55         2.3760    0.9260    2.0700 c3        1 MOL     -0.285505
    164 C56         1.5510    1.8400    1.0420 c3        1 MOL     -0.044517
    165 C57         0.2780    1.1880    0.4810 c         1 MOL      0.763039
    166 O25        -0.7640    1.8170    0.2220 o         1 MOL     -0.696487
    167 O26         0.2350   -0.0520    0.1980 o         1 MOL     -0.696487
    168 H71         4.3130    0.1870    0.5800 hn        1 MOL     -0.241535
    169 H72         3.7720    2.4400    2.4670 h1        1 MOL      0.095264
    170 H73         1.8910    1.1160    3.0320 hc        1 MOL      0.120627
    171 H74         2.3220   -0.1250    1.7730 hc        1 MOL      0.120627
    172 H75         2.1100    2.1900    0.1770 hc        1 MOL      0.062515
    173 H76         1.2940    2.7460    1.5850 hc        1 MOL      0.062515
    174 N15         4.9950   -0.5940    3.2230 n         1 MOL     -0.039613
    175 C58         5.6900   -1.3990    4.2880 c3        1 MOL     -0.257472
    176 H77         6.7520   -1.1490    4.2980 h1        1 MOL      0.094762
    177 H78         5.2550   -1.1700    5.2600 h1        1 MOL      0.094762
    178 H79         5.5700   -2.4620    4.0780 h1        1 MOL      0.094762
    179 H80         5.0230   -0.8880    2.2600 hn        1 MOL      0.095399
    180 Ca1        -2.5620   -0.1280   -0.0020 Ca        1 MOL      1.776064
    181 O27        -1.8770   -0.5160    2.5450 oh        1 MOL     -0.960188
    182 H81        -2.1910   -1.0750    3.2580 ho        1 MOL      0.446519
    183 H82        -1.2880    0.1060    2.9720 ho        1 MOL      0.446519
    184 O28        -4.6800   -1.0220    1.8120 oh        1 MOL     -0.960188
    185 H83        -4.5690   -1.3940    2.6860 ho        1 MOL      0.446519
    186 H84        -5.1400   -0.1970    1.9550 ho        1 MOL      0.446519
    187 O29        -1.3300   -0.8940   -2.3840 oh        1 MOL     -0.960188
    188 H85        -1.9100   -1.4700   -2.8810 ho        1 MOL      0.446519
    189 H86        -1.3930   -0.0500   -2.8320 ho        1 MOL      0.446519
@<TRIPOS>BOND
     1    1    2 1   
     2    1    4 1   
     3    1    5 1   
     4    1    6 1   
     5    2    3 2   
     6    2    7 1   
     7    7    8 1   
     8    7   15 1   
     9    8    9 1   
    10    8   11 1   
    11    8   16 1   
    12    9   10 2   
    13    9   19 1   
    14   11   12 1   
    15   11   17 1   
    16   11   18 1   
    17   12   13 1   
    18   12   14 1   
    19   19   20 1   
    20   19   27 1   
    21   20   21 1   
    22   20   23 1   
    23   20   28 1   
    24   21   22 2   
    25   21   38 1   
    26   23   24 1   
    27   23   25 1   
    28   23   29 1   
    29   24   26 1   
    30   24   30 1   
    31   24   31 1   
    32   25   32 1   
    33   25   33 1   
    34   25   34 1   
    35   26   35 1   
    36   26   36 1   
    37   26   37 1   
    38   38   39 1   
    39   38   46 1   
    40   39   40 1   
    41   39   42 1   
    42   39   47 1   
    43   40   41 2   
    44   40   50 1   
    45   42   43 1   
    46   42   48 1   
    47   42   49 1   
    48   43   44 1   
    49   43   45 1   
    50   50   51 1   
    51   50   54 1   
    52   51   52 1   
    53   51   55 1   
    54   51   56 1   
    55   52   53 2   
    56   52   57 1   
    57   57   58 1   
    58   57   65 1   
    59   58   59 1   
    60   58   61 1   
    61   58   66 1   
    62   59   60 2   
    63   59   69 1   
    64   61   62 1   
    65   61   67 1   
    66   61   68 1   
    67   62   63 1   
    68   62   64 1   
    69   69   70 1   
    70   69   73 1   
    71   70   71 1   
    72   70   74 1   
    73   70   75 1   
    74   71   72 2   
    75   71   76 1   
    76   76   77 1   
    77   76   85 1   
    78   77   78 1   
    79   77   80 1   
    80   77   86 1   
    81   78   79 2   
    82   78   93 1   
    83   80   81 1   
    84   80   87 1   
    85   80   88 1   
    86   81   82 1   
    87   81   89 1   
    88   81   90 1   
    89   82   83 1   
    90   82   84 2   
    91   83   91 1   
    92   83   92 1   
    93   93   94 1   
    94   93  100 1   
    95   94   95 1   
    96   94   97 1   
    97   94  101 1   
    98   95   96 2   
    99   95  109 1   
   100   97   98 1   
   101   97   99 1   
   102   97  102 1   
   103   98  103 1   
   104   98  104 1   
   105   98  105 1   
   106   99  106 1   
   107   99  107 1   
   108   99  108 1   
   109  109  110 1   
   110  109  117 1   
   111  110  111 1   
   112  110  113 1   
   113  110  118 1   
   114  111  112 2   
   115  111  123 1   
   116  113  114 1   
   117  113  119 1   
   118  113  120 1   
   119  114  115 1   
   120  114  116 2   
   121  115  121 1   
   122  115  122 1   
   123  123  124 1   
   124  123  135 1   
   125  124  125 1   
   126  124  127 1   
   127  124  136 1   
   128  125  126 2   
   129  125  144 1   
   130  127  128 1   
   131  127  137 1   
   132  127  138 1   
   133  128  129 ar  
   134  128  130 ar  
   135  129  131 ar  
   136  129  139 1   
   137  130  132 ar  
   138  130  140 1   
   139  131  133 ar  
   140  131  141 1   
   141  132  133 ar  
   142  132  142 1   
   143  133  134 1   
   144  134  143 1   
   145  144  145 1   
   146  144  153 1   
   147  145  146 1   
   148  145  148 1   
   149  145  154 1   
   150  146  147 2   
   151  146  159 1   
   152  148  149 1   
   153  148  155 1   
   154  148  156 1   
   155  149  150 1   
   156  149  157 1   
   157  149  158 1   
   158  150  151 1   
   159  150  152 1   
   160  159  160 1   
   161  159  168 1   
   162  160  161 1   
   163  160  163 1   
   164  160  169 1   
   165  161  162 2   
   166  161  174 1   
   167  163  164 1   
   168  163  170 1   
   169  163  171 1   
   170  164  165 1   
   171  164  172 1   
   172  164  173 1   
   173  165  166 1   
   174  165  167 1   
   175  174  175 1   
   176  174  179 1   
   177  175  176 1   
   178  175  177 1   
   179  175  178 1   
   180  181  182 1   
   181  181  183 1   
   182  184  185 1   
   183  184  186 1   
   184  187  188 1   
   185  187  189 1   
@<TRIPOS>SUBSTRUCTURE
     1 MOL         1 TEMP              0 ****  ****    0 ROOT
