@<TRIPOS>MOLECULE
MOL
  189   185     1     0     0
SMALL
resp


@<TRIPOS>ATOM
      1 C1         -0.4500    1.1580    6.5180 c3        1 MOL     -0.343659
      2 C2         -0.6810    1.1550    5.0070 c         1 MOL      0.650047
      3 O1          0.1900    1.6910    4.2440 o         1 MOL     -0.598040
      4 H1          0.2230    0.3430    6.7830 hc        1 MOL      0.093099
      5 H2         -0.0060    2.1070    6.8160 hc        1 MOL      0.093099
      6 H3         -1.4020    1.0240    7.0310 hc        1 MOL      0.093099
      7 N1         -1.8890    0.6350    4.6140 n         1 MOL     -0.519129
      8 C3         -2.3980    0.7150    3.2450 c3        1 MOL      0.036305
      9 C4         -2.8400    2.1840    2.9540 c         1 MOL      0.515479
     10 O2         -3.9150    2.6040    3.3590 o         1 MOL     -0.535200
     11 C5         -3.5450   -0.2750    3.0510 c3        1 MOL     -0.175691
     12 C6         -4.0070   -0.4340    1.6010 c         1 MOL      0.821699
     13 O3         -4.9870   -1.1760    1.3390 o         1 MOL     -0.727840
     14 O4         -3.4830    0.3450    0.7810 o         1 MOL     -0.727840
     15 H4         -2.4760    0.2060    5.3240 hn        1 MOL      0.326410
     16 H5         -1.5510    0.4860    2.5950 h1        1 MOL      0.046685
     17 H6         -4.3650    0.0070    3.7080 hc        1 MOL      0.040833
     18 H7         -3.2710   -1.2830    3.3680 hc        1 MOL      0.040833
     19 N2         -1.9030    2.9580    2.3970 n         1 MOL     -0.138461
     20 C7         -2.0530    4.4210    2.2120 c3        1 MOL     -0.222199
     21 C8         -3.2300    4.9250    1.3680 c         1 MOL      0.595259
     22 O5         -3.4990    6.1060    1.2140 o         1 MOL     -0.556468
     23 C9         -0.7230    5.1100    1.8070 c3        1 MOL     -0.132220
     24 C10        -0.3930    4.7280    0.3700 c3        1 MOL      0.171492
     25 C11         1.1090    5.0890    0.1740 c3        1 MOL     -0.077570
     26 C12         1.7000    4.5620   -1.1520 c3        1 MOL      0.095933
     27 N3          0.8900    4.8880   -2.3360 n4        1 MOL     -0.445725
     28 H8         -1.0190    2.5570    2.1390 hn        1 MOL      0.212466
     29 H9         -2.2700    4.7600    3.2270 h1        1 MOL      0.123570
     30 H10         0.0030    4.6870    2.4990 hc        1 MOL      0.072450
     31 H11        -0.6690    6.1990    1.8630 hc        1 MOL      0.072450
     32 H12        -1.0230    5.3530   -0.2580 hc        1 MOL     -0.014911
     33 H13        -0.5350    3.6630    0.1750 hc        1 MOL     -0.014911
     34 H14         1.6870    4.7110    1.0260 hc        1 MOL      0.040085
     35 H15         1.2510    6.1640    0.1060 hc        1 MOL      0.040085
     36 H16         2.0040    3.5120   -1.0520 hx        1 MOL      0.017451
     37 H17         2.6520    5.0700   -1.3180 hx        1 MOL      0.017451
     38 H18         1.3700    4.7560   -3.2110 hn        1 MOL      0.327318
     39 H19         0.0780    4.2840   -2.4020 hn        1 MOL      0.327318
     40 H20         0.4940    5.8180   -2.3420 hn        1 MOL      0.327318
     41 N4         -3.8530    4.0240    0.6210 n         1 MOL     -0.471001
     42 C13        -4.6810    4.3030   -0.5000 c3        1 MOL      0.194377
     43 C14        -5.8570    3.2920   -0.7030 c         1 MOL      0.368418
     44 O6         -6.4630    3.3340   -1.7580 o         1 MOL     -0.504903
     45 C15        -3.8290    4.5710   -1.7300 c3        1 MOL     -0.259404
     46 C16        -2.6890    3.5830   -2.0270 c         1 MOL      1.176327
     47 O7         -1.7780    3.9220   -2.7870 o         1 MOL     -0.898421
     48 O8         -2.6600    2.4250   -1.7090 o         1 MOL     -0.898421
     49 H21        -3.3560    3.1520    0.7130 hn        1 MOL      0.102389
     50 H22        -5.1220    5.2680   -0.2380 h1        1 MOL      0.089608
     51 H23        -3.4020    5.5830   -1.7220 hc        1 MOL      0.042342
     52 H24        -4.4910    4.5160   -2.5950 hc        1 MOL      0.042342
     53 N5         -6.1850    2.4000    0.2370 n         1 MOL     -0.163565
     54 C17        -7.4840    1.7030    0.4850 c3        1 MOL     -0.512266
     55 C18        -7.7350    0.4200   -0.3020 c         1 MOL      0.695506
     56 O9         -8.8030   -0.1330   -0.2090 o         1 MOL     -0.588276
     57 H25        -5.5590    2.3280    1.0240 hn        1 MOL      0.243786
     58 H26        -8.2870    2.3960    0.2390 h1        1 MOL      0.197786
     59 H27        -7.4620    1.3540    1.5250 h1        1 MOL      0.197786
     60 N6         -6.7420    0.0300   -1.0990 n         1 MOL     -0.310031
     61 C19        -6.9460   -0.9810   -2.2160 c3        1 MOL     -0.261336
     62 C20        -7.0310   -2.4130   -1.6170 c         1 MOL      0.487845
     63 O10        -7.3760   -3.3400   -2.3550 o         1 MOL     -0.559450
     64 C21        -5.7740   -0.8710   -3.2620 c3        1 MOL     -0.009293
     65 C22        -4.3910   -0.8580   -2.6410 c         1 MOL      0.625483
     66 O11        -3.9470   -1.7380   -1.8650 o         1 MOL     -0.702560
     67 O12        -3.5670   -0.0090   -3.0390 o         1 MOL     -0.702560
     68 H28        -5.8910    0.5600   -0.9930 hn        1 MOL      0.290851
     69 H29        -7.8630   -0.7950   -2.7670 h1        1 MOL      0.166507
     70 H30        -5.9050   -0.0460   -3.9570 hc        1 MOL      0.051940
     71 H31        -5.8180   -1.6280   -4.0450 hc        1 MOL      0.051940
     72 N7         -6.5420   -2.6530   -0.3960 n         1 MOL     -0.145088
     73 C23        -6.5120   -3.9610    0.2210 c3        1 MOL     -0.229128
     74 C24        -5.1070   -4.6560    0.1450 c         1 MOL      0.572180
     75 O13        -5.0460   -5.8800    0.4390 o         1 MOL     -0.575484
     76 H32        -6.1510   -1.8930    0.1310 hn        1 MOL      0.237912
     77 H33        -7.1800   -4.6230   -0.3300 h1        1 MOL      0.114728
     78 H34        -6.8760   -3.9210    1.2400 h1        1 MOL      0.114728
     79 N8         -4.0020   -3.9110   -0.1640 n         1 MOL     -0.202681
     80 C25        -2.6700   -4.4990   -0.3160 c3        1 MOL     -0.443346
     81 C26        -1.5820   -3.5850    0.2130 c         1 MOL      0.990507
     82 O14        -1.7400   -2.3240    0.0510 o         1 MOL     -0.805507
     83 C27        -2.4440   -4.8680   -1.8240 c3        1 MOL      0.508732
     84 C28        -3.0730   -6.1580   -2.3470 c3        1 MOL     -0.345807
     85 O15        -2.6390   -3.8450   -2.7660 oh        1 MOL     -0.666490
     86 H35        -4.1390   -2.9740   -0.5290 hn        1 MOL      0.169464
     87 H36        -2.7260   -5.4530    0.1910 h1        1 MOL      0.143824
     88 H37        -1.3930   -5.1050   -1.9620 h1        1 MOL     -0.004513
     89 H38        -3.2280   -3.1780   -2.4080 ho        1 MOL      0.467128
     90 H39        -2.6750   -6.5050   -3.3000 hc        1 MOL      0.080100
     91 H40        -2.6780   -6.9640   -1.7210 hc        1 MOL      0.080100
     92 H41        -4.1420   -6.2960   -2.2280 hc        1 MOL      0.080100
     93 N9         -0.4420   -4.1680    0.6960 n         1 MOL     -0.830808
     94 C29         0.7830   -3.3400    0.9920 c3        1 MOL      0.115124
     95 C30         1.9310   -3.6590    0.0480 c         1 MOL      0.529564
     96 O16         2.2660   -4.8240   -0.2360 o         1 MOL     -0.572547
     97 C31         1.0550   -3.6810    2.4660 c3        1 MOL     -0.014017
     98 C32        -0.0760   -3.0320    3.3140 c3        1 MOL      0.106760
     99 C33         2.4370   -3.1590    2.9840 c3        1 MOL     -0.266665
    100 C34        -0.0730   -3.3230    4.8120 c3        1 MOL     -0.166656
    101 H42        -0.3990   -5.1670    0.8150 hn        1 MOL      0.385424
    102 H43         0.5040   -2.2840    0.9500 h1        1 MOL      0.164129
    103 H44         1.0070   -4.7610    2.6080 hc        1 MOL      0.050283
    104 H45        -1.0680   -3.2730    2.9340 hc        1 MOL      0.008471
    105 H46        -0.0040   -1.9720    3.0780 hc        1 MOL      0.008471
    106 H47         2.3780   -2.0810    3.1420 hc        1 MOL      0.061590
    107 H48         2.6790   -3.5120    3.9790 hc        1 MOL      0.061590
    108 H49         3.2460   -3.4760    2.3270 hc        1 MOL      0.061590
    109 H50        -0.3800   -4.3570    5.0130 hc        1 MOL      0.037251
    110 H51         0.8910   -3.0710    5.2420 hc        1 MOL      0.037251
    111 H52        -0.7570   -2.7170    5.3920 hc        1 MOL      0.037251
    112 N10         2.4380   -2.6720   -0.5880 n         1 MOL     -0.112949
    113 C35         3.7080   -2.6670   -1.3670 c3        1 MOL     -0.242443
    114 C36         4.9120   -2.4350   -0.4810 c         1 MOL      0.443273
    115 O17         4.8610   -1.9730    0.6880 o         1 MOL     -0.310994
    116 C37         3.6520   -1.5630   -2.4790 c3        1 MOL      0.312066
    117 C38         2.5510   -1.7860   -3.4080 c3        1 MOL     -0.330700
    118 O18         3.5280   -0.3280   -1.8590 oh        1 MOL     -0.571833
    119 H53         2.0830   -1.8060   -0.2100 hn        1 MOL      0.022916
    120 H54         3.7210   -3.6320   -1.8940 h1        1 MOL      0.131196
    121 H55         4.5390   -1.5910   -3.1180 h1        1 MOL      0.034305
    122 H56         2.7220   -0.4130   -1.3390 ho        1 MOL      0.348018
    123 H57         1.5540   -1.7050   -2.9610 hc        1 MOL      0.087821
    124 H58         2.5320   -1.1260   -4.2660 hc        1 MOL      0.087821
    125 H59         2.6050   -2.7710   -3.8720 hc        1 MOL      0.087821
    126 N11         6.0770   -2.7120   -1.0960 n         1 MOL     -0.270687
    127 C39         7.3870   -2.3320   -0.4710 c3        1 MOL     -0.486381
    128 C40         7.6030   -0.8520   -0.1290 c         1 MOL      0.603769
    129 O19         8.3120   -0.5320    0.7970 o         1 MOL     -0.474399
    130 C41         8.5090   -2.8550   -1.3290 c3        1 MOL      0.406246
    131 C42         8.7850   -4.3610   -1.3410 c3        1 MOL     -0.345138
    132 O20         8.2910   -2.5020   -2.6620 oh        1 MOL     -0.611664
    133 H60         6.1490   -3.1480   -2.0070 hn        1 MOL      0.296202
    134 H61         7.5290   -2.9800    0.3950 h1        1 MOL      0.231739
    135 H62         9.3760   -2.3370   -0.9160 h1        1 MOL      0.024034
    136 H63         9.1990   -2.3560   -2.9420 ho        1 MOL      0.387667
    137 H64         8.0440   -4.9130   -1.9300 hc        1 MOL      0.099419
    138 H65         9.7650   -4.5630   -1.7780 hc        1 MOL      0.099419
    139 H66         8.8120   -4.6390   -0.2910 hc        1 MOL      0.099419
    140 N12         6.9940    0.0740   -0.9050 n         1 MOL     -0.409788
    141 C43         6.8460    1.5220   -0.5790 c3        1 MOL     -0.100349
    142 C44         6.2000    1.8700    0.7480 c         1 MOL      0.425587
    143 O21         6.5430    2.8140    1.5050 o         1 MOL     -0.516518
    144 C45         6.2120    2.3250   -1.6620 c3        1 MOL     -0.015466
    145 C46         6.6350    3.7970   -1.7420 c3        1 MOL     -0.016885
    146 C47         5.5810    4.4300   -2.7060 c3        1 MOL     -0.051668
    147 C48         5.4160    3.8140   -4.1100 c3        1 MOL     -0.118731
    148 N13         6.5550    4.2040   -4.9750 n4        1 MOL     -0.168505
    149 H67         6.5700   -0.2930   -1.7390 hn        1 MOL      0.251146
    150 H68         7.8600    1.8920   -0.4240 h1        1 MOL      0.101814
    151 H69         5.1480    2.1380   -1.5340 hc        1 MOL      0.040181
    152 H70         6.4890    1.8170   -2.5840 hc        1 MOL      0.040181
    153 H71         7.6030    4.0160   -2.1890 hc        1 MOL      0.035911
    154 H72         6.5770    4.2070   -0.7350 hc        1 MOL      0.035911
    155 H73         5.8650    5.4520   -2.9240 hc        1 MOL      0.044223
    156 H74         4.6640    4.4870   -2.1150 hc        1 MOL      0.044223
    157 H75         4.5660    4.3350   -4.5460 hx        1 MOL      0.111136
    158 H76         5.3010    2.7330   -4.0170 hx        1 MOL      0.111136
    159 H77         7.4530    3.9000   -4.6070 hn        1 MOL      0.278366
    160 H78         6.4320    3.9380   -5.9460 hn        1 MOL      0.278366
    161 H79         6.6350    5.2070   -4.9920 hn        1 MOL      0.278366
    162 N14         5.2240    1.0650    1.0740 n         1 MOL     -0.035331
    163 C49         4.2800    1.0690    2.2410 c3        1 MOL     -0.215725
    164 C50         4.8680    0.2300    3.4360 c         1 MOL      0.548293
    165 O22         4.9120    0.7430    4.5310 o         1 MOL     -0.539890
    166 C51         2.9100    0.5270    1.7790 c3        1 MOL      0.120508
    167 C52         2.1750    1.4690    0.8400 c3        1 MOL     -0.201245
    168 C53         0.9390    0.7880    0.2130 c         1 MOL      0.706677
    169 O23        -0.2020    1.1570    0.5310 o         1 MOL     -0.705877
    170 O24         0.9640   -0.1930   -0.5970 o         1 MOL     -0.705877
    171 H80         5.0570    0.3130    0.4160 hn        1 MOL      0.083078
    172 H81         4.1610    2.0720    2.6200 h1        1 MOL      0.124254
    173 H82         2.2390    0.3790    2.6240 hc        1 MOL      0.037543
    174 H83         3.0500   -0.4460    1.3200 hc        1 MOL      0.037543
    175 H84         2.8700    1.5750    0.0150 hc        1 MOL      0.069980
    176 H85         1.9110    2.4240    1.3080 hc        1 MOL      0.069980
    177 N15         5.5020   -0.9130    3.2140 n         1 MOL     -0.126348
    178 C54         6.1250   -1.7410    4.2390 c3        1 MOL     -0.413409
    179 H86         6.4840   -2.6670    3.7890 h1        1 MOL      0.145685
    180 H87         6.9630   -1.2020    4.6820 h1        1 MOL      0.145685
    181 H88         5.3930   -1.9740    5.0130 h1        1 MOL      0.145685
    182 H89         5.5800   -1.1710    2.2430 hn        1 MOL      0.118201
    183 Ca1        -1.7570    0.0260   -1.1970 Ca        1 MOL      1.833719
    184 O25        -0.3620    1.5800   -2.9600 oh        1 MOL     -0.798918
    185 H90        -0.9150    2.3690   -2.9740 ho        1 MOL      0.380618
    186 H91         0.0870    1.5950   -3.8040 ho        1 MOL      0.380618
    187 O26        -0.8610   -1.5320   -3.1330 oh        1 MOL     -0.798918
    188 H92        -1.1160   -2.4310   -3.3340 ho        1 MOL      0.380618
    189 H93        -0.7170   -1.1250   -3.9830 ho        1 MOL      0.380618
@<TRIPOS>BOND
     1    1    2 1   
     2    1    4 1   
     3    1    5 1   
     4    1    6 1   
     5    2    3 2   
     6    2    7 1   
     7    7    8 1   
     8    7   15 1   
     9    8    9 1   
    10    8   11 1   
    11    8   16 1   
    12    9   10 2   
    13    9   19 1   
    14   11   12 1   
    15   11   17 1   
    16   11   18 1   
    17   12   13 1   
    18   12   14 1   
    19   19   20 1   
    20   19   28 1   
    21   20   21 1   
    22   20   23 1   
    23   20   29 1   
    24   21   22 2   
    25   21   41 1   
    26   23   24 1   
    27   23   30 1   
    28   23   31 1   
    29   24   25 1   
    30   24   32 1   
    31   24   33 1   
    32   25   26 1   
    33   25   34 1   
    34   25   35 1   
    35   26   27 1   
    36   26   36 1   
    37   26   37 1   
    38   27   38 1   
    39   27   39 1   
    40   27   40 1   
    41   41   42 1   
    42   41   49 1   
    43   42   43 1   
    44   42   45 1   
    45   42   50 1   
    46   43   44 2   
    47   43   53 1   
    48   45   46 1   
    49   45   51 1   
    50   45   52 1   
    51   46   47 1   
    52   46   48 1   
    53   53   54 1   
    54   53   57 1   
    55   54   55 1   
    56   54   58 1   
    57   54   59 1   
    58   55   56 2   
    59   55   60 1   
    60   60   61 1   
    61   60   68 1   
    62   61   62 1   
    63   61   64 1   
    64   61   69 1   
    65   62   63 2   
    66   62   72 1   
    67   64   65 1   
    68   64   70 1   
    69   64   71 1   
    70   65   66 1   
    71   65   67 1   
    72   72   73 1   
    73   72   76 1   
    74   73   74 1   
    75   73   77 1   
    76   73   78 1   
    77   74   75 2   
    78   74   79 1   
    79   79   80 1   
    80   79   86 1   
    81   80   81 1   
    82   80   83 1   
    83   80   87 1   
    84   81   82 2   
    85   81   93 1   
    86   83   84 1   
    87   83   85 1   
    88   83   88 1   
    89   84   90 1   
    90   84   91 1   
    91   84   92 1   
    92   85   89 1   
    93   93   94 1   
    94   93  101 1   
    95   94   95 1   
    96   94   97 1   
    97   94  102 1   
    98   95   96 2   
    99   95  112 1   
   100   97   98 1   
   101   97   99 1   
   102   97  103 1   
   103   98  100 1   
   104   98  104 1   
   105   98  105 1   
   106   99  106 1   
   107   99  107 1   
   108   99  108 1   
   109  100  109 1   
   110  100  110 1   
   111  100  111 1   
   112  112  113 1   
   113  112  119 1   
   114  113  114 1   
   115  113  116 1   
   116  113  120 1   
   117  114  115 2   
   118  114  126 1   
   119  116  117 1   
   120  116  118 1   
   121  116  121 1   
   122  117  123 1   
   123  117  124 1   
   124  117  125 1   
   125  118  122 1   
   126  126  127 1   
   127  126  133 1   
   128  127  128 1   
   129  127  130 1   
   130  127  134 1   
   131  128  129 2   
   132  128  140 1   
   133  130  131 1   
   134  130  132 1   
   135  130  135 1   
   136  131  137 1   
   137  131  138 1   
   138  131  139 1   
   139  132  136 1   
   140  140  141 1   
   141  140  149 1   
   142  141  142 1   
   143  141  144 1   
   144  141  150 1   
   145  142  143 2   
   146  142  162 1   
   147  144  145 1   
   148  144  151 1   
   149  144  152 1   
   150  145  146 1   
   151  145  153 1   
   152  145  154 1   
   153  146  147 1   
   154  146  155 1   
   155  146  156 1   
   156  147  148 1   
   157  147  157 1   
   158  147  158 1   
   159  148  159 1   
   160  148  160 1   
   161  148  161 1   
   162  162  163 1   
   163  162  171 1   
   164  163  164 1   
   165  163  166 1   
   166  163  172 1   
   167  164  165 2   
   168  164  177 1   
   169  166  167 1   
   170  166  173 1   
   171  166  174 1   
   172  167  168 1   
   173  167  175 1   
   174  167  176 1   
   175  168  169 1   
   176  168  170 1   
   177  177  178 1   
   178  177  182 1   
   179  178  179 1   
   180  178  180 1   
   181  178  181 1   
   182  184  185 1   
   183  184  186 1   
   184  187  188 1   
   185  187  189 1   
@<TRIPOS>SUBSTRUCTURE
     1 MOL         1 TEMP              0 ****  ****    0 ROOT
