@<TRIPOS>MOLECULE
MOL
  172   171     1     0     0
SMALL
resp


@<TRIPOS>ATOM
      1 C1          0.5460    3.7130    5.6370 c3        1 MOL     -0.402219
      2 C2         -0.3070    3.7740    4.3360 c         1 MOL      0.726605
      3 O1          0.1560    4.2770    3.3580 o         1 MOL     -0.538150
      4 H1          0.6220    4.7110    6.0680 hc        1 MOL      0.097834
      5 H2          0.0700    3.0420    6.3530 hc        1 MOL      0.097834
      6 H3          1.5440    3.3430    5.4010 hc        1 MOL      0.097834
      7 N1         -1.5620    3.2470    4.2220 n         1 MOL     -0.716132
      8 C3         -2.2020    3.1960    2.9110 c3        1 MOL      0.354402
      9 C4         -2.2490    4.4880    2.0470 c         1 MOL      0.466508
     10 O2         -2.4320    5.5930    2.5710 o         1 MOL     -0.581786
     11 C5         -3.5980    2.4930    3.0020 c3        1 MOL     -0.331234
     12 C6         -4.1730    2.1000    1.6280 c         1 MOL      0.665259
     13 O3         -5.3840    2.0580    1.5440 o         1 MOL     -0.647262
     14 O4         -3.4620    1.9920    0.6000 o         1 MOL     -0.647262
     15 H4         -2.0030    2.9200    5.0650 hn        1 MOL      0.329436
     16 H5         -1.6380    2.4790    2.3170 h1        1 MOL      0.068287
     17 H6         -4.2760    3.1840    3.4980 hc        1 MOL      0.049033
     18 H7         -3.4750    1.5310    3.4950 hc        1 MOL      0.049033
     19 N2         -1.9860    4.3380    0.7510 n         1 MOL     -0.382266
     20 C7         -2.0570    5.3720   -0.2580 c3        1 MOL      0.214877
     21 C8         -2.8420    4.9810   -1.5550 c         1 MOL      0.507894
     22 O5         -2.7350    5.6000   -2.5900 o         1 MOL     -0.547345
     23 C9         -0.6020    5.8220   -0.4730 c3        1 MOL     -0.129050
     24 H8         -1.9000    3.3710    0.4630 hn        1 MOL      0.391085
     25 H9         -2.6070    6.2050    0.1640 h1        1 MOL      0.006544
     26 H10        -0.0210    4.9960   -0.8560 hc        1 MOL      0.022429
     27 H11        -0.5620    6.6630   -1.1670 hc        1 MOL      0.022429
     28 H12        -0.2400    6.0770    0.5260 hc        1 MOL      0.022429
     29 N3         -3.6270    3.8530   -1.5360 n         1 MOL     -0.542881
     30 C10        -4.4770    3.4100   -2.7080 c3        1 MOL      0.177959
     31 C11        -5.8290    2.7190   -2.3700 c         1 MOL      0.453631
     32 O6         -6.6020    2.4170   -3.2130 o         1 MOL     -0.544410
     33 C12        -3.5800    2.5390   -3.6080 c3        1 MOL     -0.212508
     34 C13        -3.1030    1.2790   -2.8990 c         1 MOL      0.773248
     35 O7         -1.9910    0.7420   -3.0310 o         1 MOL     -0.735358
     36 O8         -3.8760    0.6970   -2.1260 o         1 MOL     -0.735358
     37 H13        -3.5760    3.2220   -0.7540 hn        1 MOL      0.203935
     38 H14        -4.7350    4.2590   -3.3460 h1        1 MOL      0.052864
     39 H15        -2.6800    3.0850   -3.8970 hc        1 MOL      0.054083
     40 H16        -4.1310    2.2580   -4.5030 hc        1 MOL      0.054083
     41 N4         -6.0920    2.4500   -1.0860 n         1 MOL     -0.464763
     42 C14        -7.3240    1.6320   -0.6820 c3        1 MOL      0.022824
     43 C15        -7.4080    0.2010   -1.0710 c         1 MOL      0.414442
     44 O9         -8.5270   -0.3270   -0.9320 o         1 MOL     -0.607219
     45 H17        -5.4460    2.7550   -0.3740 hn        1 MOL      0.295613
     46 H18        -8.2930    2.0980   -0.9110 h1        1 MOL      0.082345
     47 H19        -7.3840    1.6220    0.4120 h1        1 MOL      0.082345
     48 N5         -6.3270   -0.5600   -1.3870 n         1 MOL     -0.113602
     49 C16        -6.4450   -1.9460   -1.9240 c3        1 MOL     -0.076903
     50 C17        -6.4400   -3.0210   -0.8030 c         1 MOL      0.409049
     51 O10        -6.4570   -4.2200   -1.0890 o         1 MOL     -0.529284
     52 C18        -5.3310   -2.2410   -2.9980 c3        1 MOL     -0.073068
     53 C19        -3.8920   -2.2490   -2.4950 c         1 MOL      0.498549
     54 N6         -2.9460   -2.1810   -3.3780 n         1 MOL     -0.669720
     55 O11        -3.5930   -2.3580   -1.2850 o         1 MOL     -0.369801
     56 H20        -5.4650   -0.0450   -1.4480 hn        1 MOL      0.176148
     57 H21        -7.4240   -1.9770   -2.3880 h1        1 MOL      0.119035
     58 H22        -5.4740   -1.4420   -3.7330 hc        1 MOL      0.042088
     59 H23        -5.5600   -3.1430   -3.5750 hc        1 MOL      0.042088
     60 H24        -3.1650   -1.9130   -4.3280 hn        1 MOL      0.353252
     61 H25        -2.0160   -2.1050   -2.9970 hn        1 MOL      0.353252
     62 N7         -6.3310   -2.6500    0.4820 n         1 MOL     -0.218468
     63 C20        -6.2100   -3.5210    1.6070 c3        1 MOL     -0.247429
     64 C21        -4.7910   -4.1200    1.9490 c         1 MOL      0.470846
     65 O12        -4.6760   -4.7860    2.9820 o         1 MOL     -0.577941
     66 H26        -6.3120   -1.6460    0.6040 hn        1 MOL      0.224626
     67 H27        -6.9340   -4.3440    1.5930 h1        1 MOL      0.119188
     68 H28        -6.5000   -2.8530    2.4160 h1        1 MOL      0.119188
     69 N8         -3.7910   -3.8380    1.0800 n         1 MOL     -0.039638
     70 C22        -2.4200   -4.4110    1.3150 c3        1 MOL     -0.055101
     71 C23        -1.3540   -3.3490    1.4820 c         1 MOL      0.295966
     72 O13        -1.5170   -2.2840    0.8750 o         1 MOL     -0.416289
     73 C24        -2.0130   -5.4990    0.3240 c3        1 MOL      0.485592
     74 C25        -2.9330   -6.7030    0.3740 c3        1 MOL     -0.548619
     75 O14        -2.0770   -4.9780   -1.0350 oh        1 MOL     -0.599425
     76 H29        -3.8850   -3.2880    0.2430 hn        1 MOL      0.062377
     77 H30        -2.3640   -4.9900    2.2390 h1        1 MOL      0.040061
     78 H31        -0.9570   -5.6660    0.5660 h1        1 MOL     -0.053078
     79 H32        -1.5430   -4.1810   -1.0460 ho        1 MOL      0.336981
     80 H33        -2.8770   -7.2630    1.3070 hc        1 MOL      0.145143
     81 H34        -3.8880   -6.2070    0.2060 hc        1 MOL      0.145143
     82 H35        -2.7120   -7.2800   -0.5230 hc        1 MOL      0.145143
     83 N9         -0.3820   -3.5980    2.3570 n         1 MOL     -0.402523
     84 C26         0.8610   -2.8160    2.1560 c3        1 MOL      0.046272
     85 C27         1.3910   -3.0880    0.7960 c         1 MOL      0.327355
     86 O15         1.5530   -4.2740    0.4040 o         1 MOL     -0.538209
     87 C28         1.9750   -2.9500    3.1830 c3        1 MOL      0.082947
     88 C29         1.5650   -2.3890    4.5430 c3        1 MOL      0.076200
     89 C30         3.3740   -2.3910    2.8410 c3        1 MOL     -0.044388
     90 C31         2.2580   -3.1440    5.7600 c3        1 MOL     -0.180760
     91 H36        -0.4320   -4.3830    2.9850 hn        1 MOL      0.304236
     92 H37         0.6030   -1.7630    2.2980 h1        1 MOL      0.098258
     93 H38         2.0990   -4.0190    3.3440 hc        1 MOL     -0.006407
     94 H39         0.4860   -2.3980    4.6580 hc        1 MOL     -0.020204
     95 H40         1.7470   -1.3140    4.5490 hc        1 MOL     -0.020204
     96 H41         4.0820   -2.6410    3.6310 hc        1 MOL      0.001285
     97 H42         3.7230   -2.9630    1.9830 hc        1 MOL      0.001285
     98 H43         3.3650   -1.3320    2.6030 hc        1 MOL      0.001285
     99 H44         1.6560   -3.1060    6.6600 hc        1 MOL      0.039350
    100 H45         2.4840   -4.2110    5.6710 hc        1 MOL      0.039350
    101 H46         3.1350   -2.5610    6.0510 hc        1 MOL      0.039350
    102 N10         1.8130   -2.0720    0.0650 n         1 MOL     -0.106679
    103 C32         2.6370   -2.0660   -1.1470 c3        1 MOL      0.092694
    104 C33         4.0080   -1.4850   -0.8900 c         1 MOL      0.551838
    105 O16         4.2240   -0.8040    0.1310 o         1 MOL     -0.462361
    106 C34         1.9710   -1.3170   -2.3210 c3        1 MOL     -0.332093
    107 C35         0.4810   -1.6640   -2.6750 c         1 MOL      0.701467
    108 O17         0.2410   -2.0270   -3.8050 o         1 MOL     -0.652438
    109 O18        -0.4430   -1.4880   -1.8490 o         1 MOL     -0.652438
    110 H47         1.6910   -1.1470    0.4670 hn        1 MOL      0.145372
    111 H48         2.9190   -3.0930   -1.3770 h1        1 MOL      0.049621
    112 H49         2.5950   -1.4330   -3.2130 hc        1 MOL      0.101975
    113 H50         1.8710   -0.2840   -2.0050 hc        1 MOL      0.101975
    114 N11         4.9490   -1.6440   -1.8480 n         1 MOL     -0.844260
    115 C36         6.3090   -1.1980   -1.5210 c3        1 MOL      0.696150
    116 C37         6.5050    0.3530   -1.2670 c         1 MOL      0.173790
    117 O19         7.1900    0.6460   -0.2740 o         1 MOL     -0.503260
    118 C38         7.2710   -1.8160   -2.5660 c3        1 MOL     -0.297539
    119 C39         8.7010   -1.8620   -2.1390 ca        1 MOL      0.180649
    120 C40         9.6700   -1.2600   -2.9310 ca        1 MOL     -0.236068
    121 C41         9.1250   -2.3960   -0.9100 ca        1 MOL     -0.236068
    122 C42        11.0000   -1.0140   -2.4720 ca        1 MOL     -0.033593
    123 C43        10.4400   -2.2110   -0.4160 ca        1 MOL     -0.033593
    124 C44        11.3640   -1.6390   -1.2580 ca        1 MOL     -0.183579
    125 H51         4.6230   -2.0680   -2.7070 hn        1 MOL      0.379296
    126 H52         6.6170   -1.6990   -0.6050 h1        1 MOL      0.003571
    127 H53         7.1810   -1.2860   -3.5190 hc        1 MOL      0.063776
    128 H54         6.9460   -2.8430   -2.6710 hc        1 MOL      0.063776
    129 H55         9.4520   -0.9940   -3.9600 ha        1 MOL      0.123478
    130 H56         8.4160   -2.8940   -0.2650 ha        1 MOL      0.123478
    131 H57        11.6180   -0.5450   -3.2200 ha        1 MOL      0.097566
    132 H58        10.7410   -2.7530    0.4740 ha        1 MOL      0.097566
    133 H59        12.3930   -1.6550   -0.9160 ha        1 MOL      0.104685
    134 N12         5.8530    1.2800   -1.9120 n         1 MOL      0.086064
    135 C45         5.8320    2.6750   -1.4850 c3        1 MOL     -0.000992
    136 C46         5.1480    3.0480   -0.1470 c         1 MOL      0.324185
    137 O20         5.1680    4.1560    0.3430 o         1 MOL     -0.531454
    138 C47         5.1940    3.4720   -2.6370 c3        1 MOL     -0.164122
    139 C48         5.4660    2.5730   -3.8590 c3        1 MOL      0.194369
    140 C49         5.2700    1.1770   -3.2610 c3        1 MOL     -0.210615
    141 H60         6.8910    2.9360   -1.4310 h1        1 MOL      0.060963
    142 H61         4.1200    3.5770   -2.4800 hc        1 MOL      0.078450
    143 H62         5.6000    4.4730   -2.7850 hc        1 MOL      0.078450
    144 H63         4.8350    2.8620   -4.7030 hc        1 MOL     -0.023921
    145 H64         6.4760    2.6690   -4.2550 hc        1 MOL     -0.023921
    146 H65         4.2270    0.8960   -3.1450 h1        1 MOL      0.064664
    147 H66         5.9300    0.4350   -3.7220 h1        1 MOL      0.064664
    148 N13         4.4880    2.1090    0.4380 n         1 MOL     -0.073937
    149 C50         3.8760    2.2810    1.8010 c3        1 MOL     -0.016706
    150 C51         4.6550    1.5400    2.8060 c         1 MOL      0.442038
    151 O21         4.7120    1.9400    3.9470 o         1 MOL     -0.563070
    152 C52         2.4360    1.7060    1.8180 c3        1 MOL     -0.110573
    153 C53         1.5160    2.1670    0.6350 c3        1 MOL      0.134260
    154 C54         0.1420    1.4870    0.5370 c         1 MOL      0.365489
    155 O22        -0.6520    1.8400   -0.4190 o         1 MOL     -0.703718
    156 O23        -0.1490    0.5540    1.2660 o         1 MOL     -0.703718
    157 H67         4.4660    1.2180   -0.0210 hn        1 MOL      0.076424
    158 H68         3.8860    3.2880    2.2010 h1        1 MOL      0.111853
    159 H69         1.9960    2.0870    2.7400 hc        1 MOL      0.059969
    160 H70         2.3780    0.6240    1.8550 hc        1 MOL      0.059969
    161 H71         2.0160    2.0180   -0.3210 hc        1 MOL      0.019418
    162 H72         1.3660    3.2400    0.6870 hc        1 MOL      0.019418
    163 N14         5.4480    0.5420    2.3840 n         1 MOL     -0.008644
    164 C55         6.4280   -0.1500    3.1810 c3        1 MOL     -0.133836
    165 H73         6.4240    0.2550    4.1930 h1        1 MOL      0.052706
    166 H74         6.1860   -1.2120    3.2140 h1        1 MOL      0.052706
    167 H75         7.4160   -0.0150    2.7410 h1        1 MOL      0.052706
    168 H76         5.5610    0.3600    1.3940 hn        1 MOL      0.037614
    169 Ca1        -2.2280   -0.2300   -0.4820 Ca        1 MOL      1.715729
    170 O24        -3.8120   -0.7750    1.5390 oh        1 MOL     -1.048230
    171 H77        -4.6070   -0.4260    1.9370 ho        1 MOL      0.477423
    172 H78        -3.2310   -0.9540    2.2770 ho        1 MOL      0.477423
@<TRIPOS>BOND
     1    1    2 1   
     2    1    4 1   
     3    1    5 1   
     4    1    6 1   
     5    2    3 2   
     6    2    7 1   
     7    7    8 1   
     8    7   15 1   
     9    8    9 1   
    10    8   11 1   
    11    8   16 1   
    12    9   10 2   
    13    9   19 1   
    14   11   12 1   
    15   11   17 1   
    16   11   18 1   
    17   12   13 1   
    18   12   14 1   
    19   19   20 1   
    20   19   24 1   
    21   20   21 1   
    22   20   23 1   
    23   20   25 1   
    24   21   22 2   
    25   21   29 1   
    26   23   26 1   
    27   23   27 1   
    28   23   28 1   
    29   29   30 1   
    30   29   37 1   
    31   30   31 1   
    32   30   33 1   
    33   30   38 1   
    34   31   32 2   
    35   31   41 1   
    36   33   34 1   
    37   33   39 1   
    38   33   40 1   
    39   34   35 1   
    40   34   36 1   
    41   41   42 1   
    42   41   45 1   
    43   42   43 1   
    44   42   46 1   
    45   42   47 1   
    46   43   44 2   
    47   43   48 1   
    48   48   49 1   
    49   48   56 1   
    50   49   50 1   
    51   49   52 1   
    52   49   57 1   
    53   50   51 2   
    54   50   62 1   
    55   52   53 1   
    56   52   58 1   
    57   52   59 1   
    58   53   54 1   
    59   53   55 2   
    60   54   60 1   
    61   54   61 1   
    62   62   63 1   
    63   62   66 1   
    64   63   64 1   
    65   63   67 1   
    66   63   68 1   
    67   64   65 2   
    68   64   69 1   
    69   69   70 1   
    70   69   76 1   
    71   70   71 1   
    72   70   73 1   
    73   70   77 1   
    74   71   72 2   
    75   71   83 1   
    76   73   74 1   
    77   73   75 1   
    78   73   78 1   
    79   74   80 1   
    80   74   81 1   
    81   74   82 1   
    82   75   79 1   
    83   83   84 1   
    84   83   91 1   
    85   84   85 1   
    86   84   87 1   
    87   84   92 1   
    88   85   86 2   
    89   85  102 1   
    90   87   88 1   
    91   87   89 1   
    92   87   93 1   
    93   88   90 1   
    94   88   94 1   
    95   88   95 1   
    96   89   96 1   
    97   89   97 1   
    98   89   98 1   
    99   90   99 1   
   100   90  100 1   
   101   90  101 1   
   102  102  103 1   
   103  102  110 1   
   104  103  104 1   
   105  103  106 1   
   106  103  111 1   
   107  104  105 2   
   108  104  114 1   
   109  106  107 1   
   110  106  112 1   
   111  106  113 1   
   112  107  108 1   
   113  107  109 1   
   114  114  115 1   
   115  114  125 1   
   116  115  116 1   
   117  115  118 1   
   118  115  126 1   
   119  116  117 2   
   120  116  134 1   
   121  118  119 1   
   122  118  127 1   
   123  118  128 1   
   124  119  120 ar  
   125  119  121 ar  
   126  120  122 ar  
   127  120  129 1   
   128  121  123 ar  
   129  121  130 1   
   130  122  124 ar  
   131  122  131 1   
   132  123  124 ar  
   133  123  132 1   
   134  124  133 1   
   135  134  135 1   
   136  134  140 1   
   137  135  136 1   
   138  135  138 1   
   139  135  141 1   
   140  136  137 2   
   141  136  148 1   
   142  138  139 1   
   143  138  142 1   
   144  138  143 1   
   145  139  140 1   
   146  139  144 1   
   147  139  145 1   
   148  140  146 1   
   149  140  147 1   
   150  148  149 1   
   151  148  157 1   
   152  149  150 1   
   153  149  152 1   
   154  149  158 1   
   155  150  151 2   
   156  150  163 1   
   157  152  153 1   
   158  152  159 1   
   159  152  160 1   
   160  153  154 1   
   161  153  161 1   
   162  153  162 1   
   163  154  155 1   
   164  154  156 1   
   165  163  164 1   
   166  163  168 1   
   167  164  165 1   
   168  164  166 1   
   169  164  167 1   
   170  170  171 1   
   171  170  172 1   
@<TRIPOS>SUBSTRUCTURE
     1 MOL         1 TEMP              0 ****  ****    0 ROOT
