@<TRIPOS>MOLECULE
MOL
  189   185     1     0     0
SMALL
resp


@<TRIPOS>ATOM
      1 C1         -0.6460    2.7550   -4.9420 c3        1 MOL     -0.325558
      2 C2          0.0150    2.5920   -3.5420 c         1 MOL      0.589945
      3 O1         -0.5150    2.9750   -2.4920 o         1 MOL     -0.567328
      4 H1         -1.0360    3.7670   -5.0440 hc        1 MOL      0.089364
      5 H2          0.0970    2.5730   -5.7190 hc        1 MOL      0.089364
      6 H3         -1.4620    2.0390   -5.0450 hc        1 MOL      0.089364
      7 N1          1.2090    2.0270   -3.5500 n         1 MOL     -0.575913
      8 C3          1.9780    1.7820   -2.3500 c3        1 MOL      0.384549
      9 C4          2.5850    3.0530   -1.7020 c         1 MOL      0.292030
     10 O2          3.8260    3.2170   -1.7800 o         1 MOL     -0.471234
     11 C5          2.9780    0.6340   -2.6260 c3        1 MOL     -0.211097
     12 C6          3.7850    0.1200   -1.4160 c         1 MOL      0.642807
     13 O3          3.3310    0.2730   -0.2460 o         1 MOL     -0.621838
     14 O4          4.9230   -0.3330   -1.6540 o         1 MOL     -0.621838
     15 H4          1.5910    1.7040   -4.4260 hn        1 MOL      0.319295
     16 H5          1.2580    1.3830   -1.6360 h1        1 MOL     -0.036271
     17 H6          3.6730    1.0080   -3.3670 hc        1 MOL      0.030812
     18 H7          2.5000   -0.2520   -3.0270 hc        1 MOL      0.030812
     19 N2          1.7610    3.9030   -1.1790 n         1 MOL     -0.197502
     20 C7          2.1090    5.2440   -0.6960 c3        1 MOL     -0.072718
     21 C8          2.9990    5.2240    0.5540 c         1 MOL      0.454894
     22 O5          3.7110    6.1600    0.8790 o         1 MOL     -0.554774
     23 C9          0.8430    6.0600   -0.5810 c3        1 MOL     -0.250877
     24 C10         0.1800    6.5390   -1.8680 c3        1 MOL      0.275765
     25 C11         0.8010    7.9680   -2.2750 c3        1 MOL     -0.265854
     26 C12        -0.0320    8.7100   -3.3110 c3        1 MOL      0.039575
     27 N3         -1.3490    9.1000   -2.9320 n4        1 MOL     -0.331853
     28 H8          0.7870    3.6480   -1.1950 hn        1 MOL      0.295880
     29 H9          2.7470    5.7280   -1.4340 h1        1 MOL      0.101636
     30 H10         1.0530    6.9090    0.0730 hc        1 MOL      0.065972
     31 H11         0.0610    5.5000   -0.0730 hc        1 MOL      0.065972
     32 H12        -0.8680    6.7590   -1.6900 hc        1 MOL     -0.042947
     33 H13         0.1870    5.7410   -2.6140 hc        1 MOL     -0.042947
     34 H14         1.7870    7.8890   -2.7390 hc        1 MOL      0.118736
     35 H15         0.9630    8.6470   -1.4420 hc        1 MOL      0.118736
     36 H16        -0.1150    8.1050   -4.2100 hx        1 MOL      0.083880
     37 H17         0.5910    9.5500   -3.6370 hx        1 MOL      0.083880
     38 H18        -1.7820    9.7530   -3.5630 hn        1 MOL      0.322771
     39 H19        -1.9670    8.2990   -2.9690 hn        1 MOL      0.322771
     40 H20        -1.3980    9.4800   -1.9970 hn        1 MOL      0.322771
     41 N4          3.0360    4.0810    1.2370 n         1 MOL     -0.210340
     42 C13         3.9150    3.8720    2.4080 c3        1 MOL      0.122773
     43 C14         5.1550    2.9470    2.0720 c         1 MOL      0.284257
     44 O6          6.0900    2.8100    2.9190 o         1 MOL     -0.515020
     45 C15         3.1630    3.4000    3.7020 c3        1 MOL     -0.245444
     46 C16         2.1960    2.2490    3.4790 c         1 MOL      0.872737
     47 O7          1.0470    2.2110    3.9660 o         1 MOL     -0.748903
     48 O8          2.5740    1.3080    2.7020 o         1 MOL     -0.748903
     49 H21         2.2480    3.4910    1.0150 hn        1 MOL      0.183242
     50 H22         4.3380    4.8350    2.6570 h1        1 MOL      0.084754
     51 H23         2.5380    4.2600    3.9580 hc        1 MOL      0.040363
     52 H24         3.8550    3.2450    4.5390 hc        1 MOL      0.040363
     53 N5          5.2330    2.3300    0.8810 n         1 MOL      0.058394
     54 C17         6.4500    1.7240    0.2950 c3        1 MOL     -0.207862
     55 C18         7.0830    0.5890    1.0560 c         1 MOL      0.557649
     56 O9          8.3110    0.5570    1.2140 o         1 MOL     -0.608787
     57 H25         4.4610    2.4560    0.2410 hn        1 MOL      0.027553
     58 H26         7.1760    2.5290    0.2950 h1        1 MOL      0.085179
     59 H27         6.2210    1.3540   -0.7090 h1        1 MOL      0.085179
     60 N6          6.2950   -0.3770    1.4010 n         1 MOL     -0.205172
     61 C19         6.6760   -1.6950    1.9670 c3        1 MOL     -0.039223
     62 C20         6.6190   -2.8410    0.8750 c         1 MOL      0.471683
     63 O10         6.5360   -4.0130    1.2330 o         1 MOL     -0.515117
     64 C21         5.7170   -2.0380    3.1560 c3        1 MOL     -0.119719
     65 C22         4.2790   -1.9160    2.7030 c         1 MOL      0.742467
     66 O11         3.8810   -2.3460    1.6010 o         1 MOL     -0.715398
     67 O12         3.4790   -1.3590    3.4960 o         1 MOL     -0.715398
     68 H28         5.3340   -0.2660    1.0790 hn        1 MOL      0.122428
     69 H29         7.7010   -1.6140    2.3240 h1        1 MOL      0.101066
     70 H30         5.8010   -1.3170    3.9760 hc        1 MOL      0.043601
     71 H31         5.9260   -3.0560    3.4930 hc        1 MOL      0.043601
     72 N7          6.6800   -2.4730   -0.3950 n         1 MOL     -0.385892
     73 C23         6.7910   -3.5320   -1.5230 c3        1 MOL     -0.251083
     74 C24         5.4630   -4.2820   -1.8070 c         1 MOL      0.569914
     75 O13         5.5260   -5.2560   -2.4850 o         1 MOL     -0.545494
     76 H32         6.5350   -1.5260   -0.7250 hn        1 MOL      0.307623
     77 H33         7.6330   -4.1620   -1.2370 h1        1 MOL      0.141625
     78 H34         7.0140   -2.8740   -2.3640 h1        1 MOL      0.141625
     79 N8          4.3300   -3.8760   -1.1710 n         1 MOL     -0.185015
     80 C25         3.0660   -4.6250   -1.2280 c3        1 MOL     -0.397662
     81 C26         1.9480   -3.6540   -1.1580 c         1 MOL      0.786343
     82 O14         2.0520   -2.5590   -0.6640 o         1 MOL     -0.642362
     83 C27         2.8880   -5.5210    0.0480 c3        1 MOL      0.481061
     84 C28         3.9010   -6.6620    0.1720 c3        1 MOL     -0.371926
     85 O15         3.0380   -4.8610    1.2530 oh        1 MOL     -0.603995
     86 H35         4.3790   -3.0330   -0.6140 hn        1 MOL      0.189874
     87 H36         3.0680   -5.1740   -2.1630 h1        1 MOL      0.154033
     88 H37         1.8880   -5.9240    0.0970 h1        1 MOL     -0.025890
     89 H38         3.4890   -4.0430    1.0240 ho        1 MOL      0.402204
     90 H39         3.6690   -7.3590   -0.6460 hc        1 MOL      0.091797
     91 H40         4.9390   -6.3370    0.1890 hc        1 MOL      0.091797
     92 H41         3.7520   -7.2220    1.0970 hc        1 MOL      0.091797
     93 N9          0.8330   -4.0870   -1.7610 n         1 MOL     -0.673233
     94 C29        -0.3340   -3.2630   -1.8830 c3        1 MOL      0.289661
     95 C30        -1.5540   -3.8750   -1.1460 c         1 MOL      0.374503
     96 O16        -1.8620   -5.0410   -1.2620 o         1 MOL     -0.537440
     97 C31        -0.6790   -2.8700   -3.3390 c3        1 MOL      0.039127
     98 C32         0.4010   -1.9920   -4.0030 c3        1 MOL      0.183802
     99 C33        -2.0830   -2.1680   -3.5500 c3        1 MOL     -0.131005
    100 C34         0.5660   -2.0590   -5.5010 c3        1 MOL     -0.367624
    101 H42         0.8330   -4.9600   -2.2620 hn        1 MOL      0.320651
    102 H43        -0.1310   -2.2990   -1.4260 h1        1 MOL     -0.018818
    103 H44        -0.6820   -3.8390   -3.8290 hc        1 MOL      0.005436
    104 H45         1.3300   -2.2620   -3.5120 hc        1 MOL     -0.001615
    105 H46         0.3100   -0.9830   -3.5810 hc        1 MOL     -0.001615
    106 H47        -2.1950   -2.0790   -4.6380 hc        1 MOL      0.007106
    107 H48        -2.9460   -2.7570   -3.2200 hc        1 MOL      0.007106
    108 H49        -2.2000   -1.1740   -3.1280 hc        1 MOL      0.007106
    109 H50        -0.3890   -1.8850   -5.9890 hc        1 MOL      0.084467
    110 H51         1.2560   -1.2670   -5.7720 hc        1 MOL      0.084467
    111 H52         0.9370   -3.0580   -5.6990 hc        1 MOL      0.084467
    112 N10        -2.3590   -2.9930   -0.5320 n         1 MOL     -0.060716
    113 C35        -3.5870   -3.3990    0.2140 c3        1 MOL      0.024618
    114 C36        -4.9050   -2.8840   -0.4550 c         1 MOL      0.215353
    115 O17        -4.8680   -2.1530   -1.4190 o         1 MOL     -0.239032
    116 C37        -3.5730   -2.7540    1.5510 c3        1 MOL      0.139255
    117 C38        -2.2990   -3.1860    2.3430 c3        1 MOL     -0.450944
    118 O18        -3.4950   -1.3500    1.4160 oh        1 MOL     -0.501298
    119 H53        -2.0090   -2.0450   -0.5470 hn        1 MOL      0.048174
    120 H54        -3.5760   -4.4760    0.3980 h1        1 MOL      0.087837
    121 H55        -4.4800   -2.9820    2.1010 h1        1 MOL      0.079557
    122 H56        -2.6330   -1.0850    1.0930 ho        1 MOL      0.325217
    123 H57        -1.4340   -2.6290    1.9820 hc        1 MOL      0.131851
    124 H58        -2.3090   -2.8420    3.3790 hc        1 MOL      0.131851
    125 H59        -2.1760   -4.2720    2.3680 hc        1 MOL      0.131851
    126 N11        -6.0440   -3.3280    0.1340 n         1 MOL     -0.293467
    127 C39        -7.3520   -2.7390   -0.2520 c3        1 MOL     -0.110415
    128 C40        -7.4590   -1.2550   -0.0250 c         1 MOL      0.246127
    129 O19        -7.9430   -0.5080   -0.9240 o         1 MOL     -0.435971
    130 C41        -8.3900   -3.4170    0.5490 c3        1 MOL      0.282771
    131 C42        -8.6960   -4.9000    0.1950 c3        1 MOL     -0.304929
    132 O20        -7.9800   -3.4610    1.9240 oh        1 MOL     -0.612944
    133 H60        -5.9730   -3.9450    0.9250 hn        1 MOL      0.288652
    134 H61        -7.4850   -2.8900   -1.3260 h1        1 MOL      0.152695
    135 H62        -9.3050   -2.8370    0.4490 h1        1 MOL      0.043099
    136 H63        -8.7700   -3.4270    2.4700 ho        1 MOL      0.402763
    137 H64        -9.0690   -4.9230   -0.8370 hc        1 MOL      0.087724
    138 H65        -7.7070   -5.3650    0.2160 hc        1 MOL      0.087724
    139 H66        -9.3980   -5.3390    0.9060 hc        1 MOL      0.087724
    140 N12        -6.8240   -0.8120    1.0530 n         1 MOL     -0.054572
    141 C43        -6.7230    0.6330    1.3880 c3        1 MOL     -0.266093
    142 C44        -6.0290    1.5270    0.4180 c         1 MOL      0.413034
    143 O21        -6.5380    2.5830    0.0650 o         1 MOL     -0.521575
    144 C45        -6.1040    0.6650    2.8460 c3        1 MOL     -0.061094
    145 C46        -6.4370    2.0450    3.5360 c3        1 MOL      0.043052
    146 C47        -6.0480    1.9560    5.0230 c3        1 MOL      0.024155
    147 C48        -6.5090    3.1600    5.7880 c3        1 MOL     -0.031894
    148 N13        -5.4270    4.2420    5.7780 n4        1 MOL     -0.347401
    149 H67        -6.6590   -1.4910    1.7850 hn        1 MOL      0.168245
    150 H68        -7.7700    0.9060    1.4500 h1        1 MOL      0.157595
    151 H69        -5.0290    0.5420    2.8600 hc        1 MOL      0.050612
    152 H70        -6.4780   -0.1510    3.4650 hc        1 MOL      0.050612
    153 H71        -7.4930    2.2740    3.3760 hc        1 MOL      0.008161
    154 H72        -5.7920    2.7740    3.0350 hc        1 MOL      0.008161
    155 H73        -4.9640    1.8540    5.0620 hc        1 MOL      0.032625
    156 H74        -6.4730    1.0430    5.4420 hc        1 MOL      0.032625
    157 H75        -6.6400    2.9250    6.8450 hx        1 MOL      0.106175
    158 H76        -7.3700    3.6370    5.3230 hx        1 MOL      0.106175
    159 H77        -4.6480    3.9950    6.3780 hn        1 MOL      0.305935
    160 H78        -4.8700    4.2920    4.9420 hn        1 MOL      0.305935
    161 H79        -5.7650    5.1700    5.9810 hn        1 MOL      0.305935
    162 N14        -4.9300    1.0500   -0.1650 n         1 MOL      0.063895
    163 C49        -4.1070    1.5420   -1.2790 c3        1 MOL     -0.277248
    164 C50        -4.7990    1.2910   -2.6580 c         1 MOL      0.585503
    165 O22        -5.0040    2.2590   -3.4150 o         1 MOL     -0.582288
    166 C51        -2.7940    0.8650   -1.0800 c3        1 MOL      0.036216
    167 C52        -2.0060    1.3160    0.1430 c3        1 MOL     -0.097502
    168 C53        -0.6030    0.6540    0.1930 c         1 MOL      0.735932
    169 O23        -0.5580   -0.6100    0.2840 o         1 MOL     -0.723257
    170 O24         0.4160    1.3770    0.4850 o         1 MOL     -0.723257
    171 H80        -4.5200    0.2530    0.2980 hn        1 MOL      0.069781
    172 H81        -3.9200    2.6150   -1.2220 h1        1 MOL      0.098357
    173 H82        -2.2000    1.1190   -1.9630 hc        1 MOL      0.051836
    174 H83        -2.9560   -0.2130   -1.0460 hc        1 MOL      0.051836
    175 H84        -2.5900    1.0180    1.0130 hc        1 MOL      0.011961
    176 H85        -1.8690    2.3970    0.1950 hc        1 MOL      0.011961
    177 N15        -5.2250    0.0510   -2.9800 n         1 MOL     -0.188765
    178 C54        -5.9870   -0.2990   -4.2190 c3        1 MOL     -0.175921
    179 H86        -6.2160    0.6120   -4.7720 h1        1 MOL      0.084802
    180 H87        -5.3850   -0.9600   -4.8410 h1        1 MOL      0.084802
    181 H88        -6.9150   -0.8010   -3.9460 h1        1 MOL      0.084802
    182 H89        -5.0940   -0.6380   -2.2520 hn        1 MOL      0.118498
    183 Ca1         1.7850   -0.7790    1.3760 Ca        1 MOL      1.744114
    184 O25         0.9120   -3.2250    2.3500 oh        1 MOL     -0.851296
    185 H90         0.4890   -3.5220    3.1520 ho        1 MOL      0.401261
    186 H91         1.4750   -3.9610    2.0960 ho        1 MOL      0.401261
    187 O26        -0.2410   -0.2550    3.3030 oh        1 MOL     -0.851296
    188 H92        -1.0160   -0.4790    3.8240 ho        1 MOL      0.401261
    189 H93        -0.0950    0.6780    3.4660 ho        1 MOL      0.401261
@<TRIPOS>BOND
     1    1    2 1   
     2    1    4 1   
     3    1    5 1   
     4    1    6 1   
     5    2    3 2   
     6    2    7 1   
     7    7    8 1   
     8    7   15 1   
     9    8    9 1   
    10    8   11 1   
    11    8   16 1   
    12    9   10 2   
    13    9   19 1   
    14   11   12 1   
    15   11   17 1   
    16   11   18 1   
    17   12   13 1   
    18   12   14 1   
    19   19   20 1   
    20   19   28 1   
    21   20   21 1   
    22   20   23 1   
    23   20   29 1   
    24   21   22 2   
    25   21   41 1   
    26   23   24 1   
    27   23   30 1   
    28   23   31 1   
    29   24   25 1   
    30   24   32 1   
    31   24   33 1   
    32   25   26 1   
    33   25   34 1   
    34   25   35 1   
    35   26   27 1   
    36   26   36 1   
    37   26   37 1   
    38   27   38 1   
    39   27   39 1   
    40   27   40 1   
    41   41   42 1   
    42   41   49 1   
    43   42   43 1   
    44   42   45 1   
    45   42   50 1   
    46   43   44 2   
    47   43   53 1   
    48   45   46 1   
    49   45   51 1   
    50   45   52 1   
    51   46   47 1   
    52   46   48 1   
    53   53   54 1   
    54   53   57 1   
    55   54   55 1   
    56   54   58 1   
    57   54   59 1   
    58   55   56 2   
    59   55   60 1   
    60   60   61 1   
    61   60   68 1   
    62   61   62 1   
    63   61   64 1   
    64   61   69 1   
    65   62   63 2   
    66   62   72 1   
    67   64   65 1   
    68   64   70 1   
    69   64   71 1   
    70   65   66 1   
    71   65   67 1   
    72   72   73 1   
    73   72   76 1   
    74   73   74 1   
    75   73   77 1   
    76   73   78 1   
    77   74   75 2   
    78   74   79 1   
    79   79   80 1   
    80   79   86 1   
    81   80   81 1   
    82   80   83 1   
    83   80   87 1   
    84   81   82 2   
    85   81   93 1   
    86   83   84 1   
    87   83   85 1   
    88   83   88 1   
    89   84   90 1   
    90   84   91 1   
    91   84   92 1   
    92   85   89 1   
    93   93   94 1   
    94   93  101 1   
    95   94   95 1   
    96   94   97 1   
    97   94  102 1   
    98   95   96 2   
    99   95  112 1   
   100   97   98 1   
   101   97   99 1   
   102   97  103 1   
   103   98  100 1   
   104   98  104 1   
   105   98  105 1   
   106   99  106 1   
   107   99  107 1   
   108   99  108 1   
   109  100  109 1   
   110  100  110 1   
   111  100  111 1   
   112  112  113 1   
   113  112  119 1   
   114  113  114 1   
   115  113  116 1   
   116  113  120 1   
   117  114  115 2   
   118  114  126 1   
   119  116  117 1   
   120  116  118 1   
   121  116  121 1   
   122  117  123 1   
   123  117  124 1   
   124  117  125 1   
   125  118  122 1   
   126  126  127 1   
   127  126  133 1   
   128  127  128 1   
   129  127  130 1   
   130  127  134 1   
   131  128  129 2   
   132  128  140 1   
   133  130  131 1   
   134  130  132 1   
   135  130  135 1   
   136  131  137 1   
   137  131  138 1   
   138  131  139 1   
   139  132  136 1   
   140  140  141 1   
   141  140  149 1   
   142  141  142 1   
   143  141  144 1   
   144  141  150 1   
   145  142  143 2   
   146  142  162 1   
   147  144  145 1   
   148  144  151 1   
   149  144  152 1   
   150  145  146 1   
   151  145  153 1   
   152  145  154 1   
   153  146  147 1   
   154  146  155 1   
   155  146  156 1   
   156  147  148 1   
   157  147  157 1   
   158  147  158 1   
   159  148  159 1   
   160  148  160 1   
   161  148  161 1   
   162  162  163 1   
   163  162  171 1   
   164  163  164 1   
   165  163  166 1   
   166  163  172 1   
   167  164  165 2   
   168  164  177 1   
   169  166  167 1   
   170  166  173 1   
   171  166  174 1   
   172  167  168 1   
   173  167  175 1   
   174  167  176 1   
   175  168  169 1   
   176  168  170 1   
   177  177  178 1   
   178  177  182 1   
   179  178  179 1   
   180  178  180 1   
   181  178  181 1   
   182  184  185 1   
   183  184  186 1   
   184  187  188 1   
   185  187  189 1   
@<TRIPOS>SUBSTRUCTURE
     1 MOL         1 TEMP              0 ****  ****    0 ROOT
