@<TRIPOS>MOLECULE
MOL
  189   185     1     0     0
SMALL
resp


@<TRIPOS>ATOM
      1 C1         -0.5410    1.1270    6.3990 c3        1 MOL     -0.363812
      2 C2         -0.8620    1.0430    4.8880 c         1 MOL      0.739158
      3 O1          0.0460    1.2620    4.0800 o         1 MOL     -0.636790
      4 H1          0.4700    0.7610    6.5760 hc        1 MOL      0.093582
      5 H2         -0.6150    2.1630    6.7310 hc        1 MOL      0.093582
      6 H3         -1.2500    0.5150    6.9570 hc        1 MOL      0.093582
      7 N1         -2.1040    0.6820    4.5260 n         1 MOL     -0.672894
      8 C3         -2.5540    0.8700    3.1360 c3        1 MOL      0.178746
      9 C4         -2.8470    2.3590    2.9690 c         1 MOL      0.437799
     10 O2         -3.7910    2.8780    3.5570 o         1 MOL     -0.559640
     11 C5         -3.7790    0.0330    2.8480 c3        1 MOL     -0.337980
     12 C6         -4.3610    0.1580    1.4050 c         1 MOL      0.694793
     13 O3         -5.5000   -0.2230    1.1800 o         1 MOL     -0.578944
     14 O4         -3.6530    0.7420    0.5600 o         1 MOL     -0.578944
     15 H4         -2.8350    0.6130    5.2270 hn        1 MOL      0.369842
     16 H5         -1.7340    0.6170    2.4630 h1        1 MOL      0.000265
     17 H6         -4.5120    0.2510    3.6240 hc        1 MOL      0.089099
     18 H7         -3.5780   -1.0330    2.9780 hc        1 MOL      0.089099
     19 N2         -1.9310    3.0070    2.3310 n         1 MOL     -0.054463
     20 C7         -1.8870    4.4280    2.2640 c3        1 MOL     -0.278678
     21 C8         -2.6700    5.1240    1.1740 c         1 MOL      0.644236
     22 O5         -2.6450    6.3340    1.1600 o         1 MOL     -0.571082
     23 C9         -0.4350    4.8420    2.1060 c3        1 MOL      0.050256
     24 C10         0.3220    4.5430    0.8100 c3        1 MOL      0.082819
     25 C11         1.7180    5.1210    0.7220 c3        1 MOL     -0.212018
     26 C12         2.8050    4.5860    1.6720 c3        1 MOL      0.189368
     27 N3          3.9350    5.5440    1.6850 n4        1 MOL     -0.615740
     28 H8         -1.2210    2.4580    1.8730 hn        1 MOL      0.276752
     29 H9         -2.1560    4.9310    3.1920 h1        1 MOL      0.123322
     30 H10         0.1190    4.4050    2.9480 hc        1 MOL      0.000032
     31 H11        -0.3570    5.9210    2.2140 hc        1 MOL      0.000032
     32 H12        -0.2650    5.0550    0.0490 hc        1 MOL      0.002020
     33 H13         0.3080    3.4600    0.6740 hc        1 MOL      0.002020
     34 H14         1.5890    6.1910    0.8540 hc        1 MOL      0.054794
     35 H15         2.0400    4.9190   -0.3030 hc        1 MOL      0.054794
     36 H16         2.9830    3.5760    1.3110 hx        1 MOL      0.075338
     37 H17         2.3090    4.4780    2.6330 hx        1 MOL      0.075338
     38 H18         4.6210    5.1610    2.3210 hn        1 MOL      0.379642
     39 H19         4.3620    5.7420    0.7910 hn        1 MOL      0.379642
     40 H20         3.7620    6.4760    2.0550 hn        1 MOL      0.379642
     41 N4         -3.2490    4.3380    0.2740 n         1 MOL     -0.384319
     42 C13        -3.8250    4.7390   -1.0010 c3        1 MOL      0.118274
     43 C14        -5.2050    4.1480   -1.3340 c         1 MOL      0.470226
     44 O6         -6.0210    4.8060   -2.0360 o         1 MOL     -0.551294
     45 C15        -2.9430    4.5540   -2.2410 c3        1 MOL     -0.352371
     46 C16        -2.3450    3.1620   -2.4170 c         1 MOL      0.890291
     47 O7         -1.3470    3.0530   -3.1830 o         1 MOL     -0.750351
     48 O8         -2.7880    2.2880   -1.6920 o         1 MOL     -0.750351
     49 H21        -3.2200    3.3440    0.4100 hn        1 MOL      0.081470
     50 H22        -4.0750    5.7930   -0.8310 h1        1 MOL      0.064017
     51 H23        -2.1000    5.2280   -2.1420 hc        1 MOL      0.088054
     52 H24        -3.4830    4.7460   -3.1650 hc        1 MOL      0.088054
     53 N5         -5.5600    2.9990   -0.7590 n         1 MOL     -0.266875
     54 C17        -6.9330    2.5970   -0.5930 c3        1 MOL     -0.062216
     55 C18        -7.2860    1.3030   -1.4270 c         1 MOL      0.541292
     56 O9         -8.3510    1.3060   -2.0360 o         1 MOL     -0.584169
     57 H25        -4.8210    2.4580   -0.3180 hn        1 MOL      0.302459
     58 H26        -7.5630    3.3670   -1.0470 h1        1 MOL      0.075877
     59 H27        -7.2850    2.5050    0.4320 h1        1 MOL      0.075877
     60 N6         -6.4330    0.3150   -1.5990 n         1 MOL     -0.153523
     61 C19        -6.7490   -0.8660   -2.4770 c3        1 MOL      0.072281
     62 C20        -6.8920   -2.1950   -1.6480 c         1 MOL      0.342849
     63 O10        -7.2850   -3.2180   -2.2220 o         1 MOL     -0.523233
     64 C21        -5.5970   -1.0010   -3.3890 c3        1 MOL     -0.277297
     65 C22        -4.1730   -0.8950   -2.6780 c         1 MOL      0.682326
     66 O11        -3.9710   -1.4690   -1.6470 o         1 MOL     -0.698810
     67 O12        -3.3320   -0.1970   -3.2260 o         1 MOL     -0.698810
     68 H28        -5.6960    0.2450   -0.9130 hn        1 MOL     -0.002823
     69 H29        -7.6820   -0.8080   -3.0440 h1        1 MOL      0.117103
     70 H30        -5.6020   -0.2660   -4.1920 hc        1 MOL      0.083904
     71 H31        -5.5750   -2.0220   -3.7760 hc        1 MOL      0.083904
     72 N7         -6.5880   -2.2100   -0.3520 n         1 MOL     -0.140937
     73 C23        -6.7900   -3.3070    0.5650 c3        1 MOL     -0.068701
     74 C24        -5.4700   -4.1200    0.6550 c         1 MOL      0.497915
     75 O13        -5.4600   -5.2080    1.1790 o         1 MOL     -0.575305
     76 H32        -6.0220   -1.4540    0.0100 hn        1 MOL      0.097283
     77 H33        -7.6440   -3.9140    0.2800 h1        1 MOL      0.085483
     78 H34        -7.0050   -2.9840    1.5830 h1        1 MOL      0.085483
     79 N8         -4.3500   -3.6430    0.0790 n         1 MOL     -0.201394
     80 C25        -3.0840   -4.3160   -0.0180 c3        1 MOL     -0.045562
     81 C26        -1.9510   -3.4030    0.2720 c         1 MOL      0.661159
     82 O14        -2.0220   -2.1680    0.3470 o         1 MOL     -0.688967
     83 C27        -2.8910   -4.8920   -1.3900 c3        1 MOL      0.441647
     84 C28        -3.4470   -6.2830   -1.5840 c3        1 MOL     -0.447194
     85 O15        -3.3570   -4.1210   -2.4550 oh        1 MOL     -0.617145
     86 H35        -4.5040   -2.7200   -0.2780 hn        1 MOL      0.153070
     87 H36        -3.0700   -5.1180    0.7220 h1        1 MOL      0.069855
     88 H37        -1.8030   -4.9780   -1.5120 h1        1 MOL     -0.037202
     89 H38        -3.5300   -3.2800   -2.0270 ho        1 MOL      0.452033
     90 H39        -2.9190   -6.9750   -0.9380 hc        1 MOL      0.112979
     91 H40        -4.5050   -6.2350   -1.3260 hc        1 MOL      0.112979
     92 H41        -3.1730   -6.5690   -2.6000 hc        1 MOL      0.112979
     93 N9         -0.8090   -4.0470    0.5540 n         1 MOL     -0.598035
     94 C29         0.4530   -3.4370    0.9600 c3        1 MOL     -0.031303
     95 C30         1.5390   -3.7380   -0.0610 c         1 MOL      0.478654
     96 O16         1.9870   -4.8780   -0.1310 o         1 MOL     -0.534341
     97 C31         0.7690   -3.9250    2.4370 c3        1 MOL      0.164767
     98 C32        -0.1440   -3.2190    3.4910 c3        1 MOL     -0.065917
     99 C33         2.2050   -3.7440    2.9040 c3        1 MOL     -0.311666
    100 C34         0.1630   -3.5970    4.9780 c3        1 MOL     -0.225140
    101 H42        -0.7230   -5.0490    0.4350 hn        1 MOL      0.313582
    102 H43         0.3670   -2.3520    0.9360 h1        1 MOL      0.087455
    103 H44         0.5550   -4.9890    2.4400 hc        1 MOL      0.002588
    104 H45        -1.1880   -3.3580    3.2050 hc        1 MOL      0.075417
    105 H46         0.2510   -2.2120    3.3140 hc        1 MOL      0.075417
    106 H47         2.3640   -4.3650    3.7850 hc        1 MOL      0.069633
    107 H48         2.8610   -4.2110    2.1780 hc        1 MOL      0.069633
    108 H49         2.4580   -2.7070    3.0930 hc        1 MOL      0.069633
    109 H50        -0.0140   -4.6710    5.0210 hc        1 MOL      0.062336
    110 H51         1.1820   -3.3140    5.2340 hc        1 MOL      0.062336
    111 H52        -0.5720   -3.1510    5.6480 hc        1 MOL      0.062336
    112 N10         2.0370   -2.7580   -0.8040 n         1 MOL     -0.214413
    113 C35         3.2700   -2.8340   -1.6010 c3        1 MOL     -0.161316
    114 C36         4.5680   -2.7360   -0.7580 c         1 MOL      0.387228
    115 O17         4.5780   -2.4720    0.4520 o         1 MOL     -0.312154
    116 C37         3.2550   -1.6480   -2.6320 c3        1 MOL      0.341696
    117 C38         2.0570   -1.6720   -3.5450 c3        1 MOL     -0.447862
    118 O18         3.2660   -0.4560   -1.9140 oh        1 MOL     -0.529719
    119 H53         1.6200   -1.8490   -0.7070 hn        1 MOL      0.359182
    120 H54         3.3930   -3.8310   -2.0150 h1        1 MOL      0.091605
    121 H55         4.1550   -1.6650   -3.2530 h1        1 MOL      0.011133
    122 H56         2.4740   -0.4700   -1.3850 ho        1 MOL      0.283663
    123 H57         2.1870   -0.9060   -4.3140 hc        1 MOL      0.117222
    124 H58         1.9780   -2.6790   -3.9430 hc        1 MOL      0.117222
    125 H59         1.1540   -1.3790   -2.9960 hc        1 MOL      0.117222
    126 N11         5.6630   -2.9030   -1.4380 n         1 MOL     -0.263196
    127 C39         6.9130   -2.4160   -0.8570 c3        1 MOL     -0.302469
    128 C40         6.9430   -0.9040   -0.3480 c         1 MOL      0.611452
    129 O19         7.3570   -0.7040    0.7630 o         1 MOL     -0.503993
    130 C41         8.1330   -2.5370   -1.8210 c3        1 MOL      0.317609
    131 C42         8.4470   -3.9230   -2.3260 c3        1 MOL     -0.186193
    132 O20         7.8390   -1.6660   -2.9040 oh        1 MOL     -0.624612
    133 H60         5.5460   -3.0490   -2.4250 hn        1 MOL      0.275359
    134 H61         7.1450   -3.1040   -0.0420 h1        1 MOL      0.174877
    135 H62         9.0360   -2.2430   -1.2910 h1        1 MOL      0.019262
    136 H63         8.7050   -1.5870   -3.3240 ho        1 MOL      0.384107
    137 H64         8.9570   -4.5110   -1.5660 hc        1 MOL      0.057997
    138 H65         7.5210   -4.4250   -2.6210 hc        1 MOL      0.057997
    139 H66         9.1220   -3.9250   -3.1860 hc        1 MOL      0.057997
    140 N12         6.3450    0.0470   -1.0770 n         1 MOL     -0.516875
    141 C43         6.3750    1.4770   -0.5000 c3        1 MOL     -0.215757
    142 C44         5.6000    1.6020    0.8470 c         1 MOL      0.518549
    143 O21         5.7160    2.6510    1.4540 o         1 MOL     -0.618152
    144 C45         5.7120    2.4580   -1.4630 c3        1 MOL     -0.012196
    145 C46         6.5860    2.6430   -2.6880 c3        1 MOL      0.033662
    146 C47         5.7440    3.3950   -3.7380 c3        1 MOL     -0.066594
    147 C48         6.5740    3.6460   -5.0120 c3        1 MOL     -0.120546
    148 N13         7.8330    4.4420   -4.6960 n4        1 MOL     -0.299362
    149 H67         5.8720   -0.1760   -1.9440 hn        1 MOL      0.390939
    150 H68         7.4020    1.7780   -0.3130 h1        1 MOL      0.181956
    151 H69         5.6860    3.4320   -0.9650 hc        1 MOL      0.018430
    152 H70         4.6730    2.3310   -1.7590 hc        1 MOL      0.018430
    153 H71         6.7630    1.6800   -3.1520 hc        1 MOL      0.010311
    154 H72         7.5020    3.1370   -2.3490 hc        1 MOL      0.010311
    155 H73         5.3410    4.3020   -3.2960 hc        1 MOL      0.084291
    156 H74         4.9340    2.7240   -4.0110 hc        1 MOL      0.084291
    157 H75         5.8940    4.2090   -5.6590 hx        1 MOL      0.139846
    158 H76         6.8250    2.6950   -5.4610 hx        1 MOL      0.139846
    159 H77         8.3610    4.5360   -5.5580 hn        1 MOL      0.289437
    160 H78         7.6780    5.4060   -4.4510 hn        1 MOL      0.289437
    161 H79         8.3880    3.9490   -4.0100 hn        1 MOL      0.289437
    162 N14         4.9490    0.5710    1.2480 n         1 MOL      0.040956
    163 C49         4.1390    0.4720    2.4630 c3        1 MOL     -0.032102
    164 C50         4.7560   -0.5120    3.4800 c         1 MOL      0.509442
    165 O22         4.8410   -0.1180    4.6730 o         1 MOL     -0.542608
    166 C51         2.7240   -0.0820    2.0780 c3        1 MOL     -0.009190
    167 C52         2.0170    1.0720    1.3170 c3        1 MOL     -0.106448
    168 C53         0.7800    0.6450    0.5310 c         1 MOL      0.774471
    169 O23         0.9360   -0.3100   -0.2460 o         1 MOL     -0.751240
    170 O24        -0.3150    1.2700    0.7670 o         1 MOL     -0.751240
    171 H80         5.0620   -0.2700    0.7030 hn        1 MOL     -0.028304
    172 H81         4.0260    1.4770    2.8720 h1        1 MOL      0.023222
    173 H82         2.1220   -0.3200    2.9600 hc        1 MOL      0.057308
    174 H83         2.7280   -0.9800    1.4590 hc        1 MOL      0.057308
    175 H84         2.6360    1.5360    0.5530 hc        1 MOL      0.035902
    176 H85         1.7410    1.8360    2.0460 hc        1 MOL      0.035902
    177 N15         5.2740   -1.7150    3.1200 n         1 MOL     -0.170595
    178 C54         6.2430   -2.4710    3.8910 c3        1 MOL     -0.428682
    179 H86         6.4490   -3.4150    3.3890 h1        1 MOL      0.153924
    180 H87         7.1660   -1.8970    3.9790 h1        1 MOL      0.153924
    181 H88         5.8420   -2.6690    4.8850 h1        1 MOL      0.153924
    182 H89         5.2410   -1.9210    2.1360 hn        1 MOL      0.158530
    183 Ca1        -1.8670   -0.0430   -1.0300 Ca        1 MOL      1.754148
    184 O25        -0.3080    0.8060   -3.0850 oh        1 MOL     -0.896588
    185 H90        -0.5920    1.7180   -3.0770 ho        1 MOL      0.404941
    186 H91        -0.0920    0.6160   -4.0020 ho        1 MOL      0.404941
    187 O26        -1.0920   -2.4570   -2.5060 oh        1 MOL     -0.896588
    188 H92        -1.6620   -3.1030   -2.9040 ho        1 MOL      0.404941
    189 H93        -0.5470   -2.1330   -3.2260 ho        1 MOL      0.404941
@<TRIPOS>BOND
     1    1    2 1   
     2    1    4 1   
     3    1    5 1   
     4    1    6 1   
     5    2    3 2   
     6    2    7 1   
     7    7    8 1   
     8    7   15 1   
     9    8    9 1   
    10    8   11 1   
    11    8   16 1   
    12    9   10 2   
    13    9   19 1   
    14   11   12 1   
    15   11   17 1   
    16   11   18 1   
    17   12   13 1   
    18   12   14 1   
    19   19   20 1   
    20   19   28 1   
    21   20   21 1   
    22   20   23 1   
    23   20   29 1   
    24   21   22 2   
    25   21   41 1   
    26   23   24 1   
    27   23   30 1   
    28   23   31 1   
    29   24   25 1   
    30   24   32 1   
    31   24   33 1   
    32   25   26 1   
    33   25   34 1   
    34   25   35 1   
    35   26   27 1   
    36   26   36 1   
    37   26   37 1   
    38   27   38 1   
    39   27   39 1   
    40   27   40 1   
    41   41   42 1   
    42   41   49 1   
    43   42   43 1   
    44   42   45 1   
    45   42   50 1   
    46   43   44 2   
    47   43   53 1   
    48   45   46 1   
    49   45   51 1   
    50   45   52 1   
    51   46   47 1   
    52   46   48 1   
    53   53   54 1   
    54   53   57 1   
    55   54   55 1   
    56   54   58 1   
    57   54   59 1   
    58   55   56 2   
    59   55   60 1   
    60   60   61 1   
    61   60   68 1   
    62   61   62 1   
    63   61   64 1   
    64   61   69 1   
    65   62   63 2   
    66   62   72 1   
    67   64   65 1   
    68   64   70 1   
    69   64   71 1   
    70   65   66 1   
    71   65   67 1   
    72   72   73 1   
    73   72   76 1   
    74   73   74 1   
    75   73   77 1   
    76   73   78 1   
    77   74   75 2   
    78   74   79 1   
    79   79   80 1   
    80   79   86 1   
    81   80   81 1   
    82   80   83 1   
    83   80   87 1   
    84   81   82 2   
    85   81   93 1   
    86   83   84 1   
    87   83   85 1   
    88   83   88 1   
    89   84   90 1   
    90   84   91 1   
    91   84   92 1   
    92   85   89 1   
    93   93   94 1   
    94   93  101 1   
    95   94   95 1   
    96   94   97 1   
    97   94  102 1   
    98   95   96 2   
    99   95  112 1   
   100   97   98 1   
   101   97   99 1   
   102   97  103 1   
   103   98  100 1   
   104   98  104 1   
   105   98  105 1   
   106   99  106 1   
   107   99  107 1   
   108   99  108 1   
   109  100  109 1   
   110  100  110 1   
   111  100  111 1   
   112  112  113 1   
   113  112  119 1   
   114  113  114 1   
   115  113  116 1   
   116  113  120 1   
   117  114  115 2   
   118  114  126 1   
   119  116  117 1   
   120  116  118 1   
   121  116  121 1   
   122  117  123 1   
   123  117  124 1   
   124  117  125 1   
   125  118  122 1   
   126  126  127 1   
   127  126  133 1   
   128  127  128 1   
   129  127  130 1   
   130  127  134 1   
   131  128  129 2   
   132  128  140 1   
   133  130  131 1   
   134  130  132 1   
   135  130  135 1   
   136  131  137 1   
   137  131  138 1   
   138  131  139 1   
   139  132  136 1   
   140  140  141 1   
   141  140  149 1   
   142  141  142 1   
   143  141  144 1   
   144  141  150 1   
   145  142  143 2   
   146  142  162 1   
   147  144  145 1   
   148  144  151 1   
   149  144  152 1   
   150  145  146 1   
   151  145  153 1   
   152  145  154 1   
   153  146  147 1   
   154  146  155 1   
   155  146  156 1   
   156  147  148 1   
   157  147  157 1   
   158  147  158 1   
   159  148  159 1   
   160  148  160 1   
   161  148  161 1   
   162  162  163 1   
   163  162  171 1   
   164  163  164 1   
   165  163  166 1   
   166  163  172 1   
   167  164  165 2   
   168  164  177 1   
   169  166  167 1   
   170  166  173 1   
   171  166  174 1   
   172  167  168 1   
   173  167  175 1   
   174  167  176 1   
   175  168  169 1   
   176  168  170 1   
   177  177  178 1   
   178  177  182 1   
   179  178  179 1   
   180  178  180 1   
   181  178  181 1   
   182  184  185 1   
   183  184  186 1   
   184  187  188 1   
   185  187  189 1   
@<TRIPOS>SUBSTRUCTURE
     1 MOL         1 TEMP              0 ****  ****    0 ROOT
