@<TRIPOS>MOLECULE
MOL
  189   185     1     0     0
SMALL
resp


@<TRIPOS>ATOM
      1 C1         -0.4880    2.7300   -4.8780 c3        1 MOL     -0.378489
      2 C2          0.2390    2.4640   -3.5240 c         1 MOL      0.546010
      3 O1         -0.1970    2.9830   -2.5040 o         1 MOL     -0.576752
      4 H1         -0.4980    1.8150   -5.4700 hc        1 MOL      0.100535
      5 H2         -1.5130    3.0480   -4.6860 hc        1 MOL      0.100535
      6 H3          0.0380    3.5110   -5.4270 hc        1 MOL      0.100535
      7 N1          1.4160    1.8270   -3.5040 n         1 MOL     -0.427419
      8 C3          2.3760    1.6340   -2.3610 c3        1 MOL      0.257027
      9 C4          3.0760    2.9950   -1.9590 c         1 MOL      0.271527
     10 O2          4.3050    3.2270   -2.1290 o         1 MOL     -0.437257
     11 C5          3.3620    0.5000   -2.7020 c3        1 MOL     -0.284977
     12 C6          4.3210    0.1930   -1.4580 c         1 MOL      0.676859
     13 O3          3.8250    0.1080   -0.2730 o         1 MOL     -0.621769
     14 O4          5.4940   -0.1690   -1.6160 o         1 MOL     -0.621769
     15 H4          1.7730    1.4340   -4.3690 hn        1 MOL      0.268735
     16 H5          1.7420    1.3990   -1.4990 h1        1 MOL     -0.003495
     17 H6          3.9250    0.9760   -3.5020 hc        1 MOL      0.066447
     18 H7          2.7890   -0.3720   -3.0130 hc        1 MOL      0.066447
     19 N2          2.2410    3.8680   -1.3850 n         1 MOL     -0.270864
     20 C7          2.5430    5.2060   -0.8730 c3        1 MOL     -0.003213
     21 C8          3.4680    5.1600    0.3300 c         1 MOL      0.375512
     22 O5          3.8420    6.2220    0.8730 o         1 MOL     -0.547218
     23 C9          1.3550    6.1420   -0.5670 c3        1 MOL     -0.138777
     24 C10         0.8120    6.5050   -1.9210 c3        1 MOL      0.112253
     25 C11        -0.4260    7.4630   -1.7450 c3        1 MOL      0.059918
     26 C12        -0.9480    8.0920   -3.0520 c3        1 MOL     -0.227755
     27 N3         -1.3800    6.9180   -3.8950 n4        1 MOL     -0.186824
     28 H8          1.2540    3.6540   -1.4550 hn        1 MOL      0.302146
     29 H9          3.0620    5.6870   -1.7010 h1        1 MOL      0.071691
     30 H10         1.6430    7.0770   -0.0920 hc        1 MOL      0.084509
     31 H11         0.5600    5.6470   -0.0040 hc        1 MOL      0.084509
     32 H12         0.4540    5.5790   -2.3570 hc        1 MOL     -0.020851
     33 H13         1.5320    7.0140   -2.5770 hc        1 MOL     -0.020851
     34 H14        -0.1420    8.2020   -0.9960 hc        1 MOL      0.023855
     35 H15        -1.2660    7.0310   -1.2020 hc        1 MOL      0.023855
     36 H16        -0.2460    8.7600   -3.5390 hx        1 MOL      0.148257
     37 H17        -1.8420    8.6510   -2.7680 hx        1 MOL      0.148257
     38 H18        -1.7080    6.1860   -3.2820 hn        1 MOL      0.291271
     39 H19        -2.0540    7.0680   -4.6360 hn        1 MOL      0.291271
     40 H20        -0.6080    6.5010   -4.3950 hn        1 MOL      0.291271
     41 N4          3.6970    3.9560    0.9400 n         1 MOL     -0.134485
     42 C13         4.5210    3.7740    2.1970 c3        1 MOL      0.031076
     43 C14         5.6890    2.7640    2.0140 c         1 MOL      0.317322
     44 O6          6.2820    2.3110    2.9550 o         1 MOL     -0.449567
     45 C15         3.6540    3.4870    3.3690 c3        1 MOL     -0.175210
     46 C16         2.9150    2.1240    3.3330 c         1 MOL      0.855712
     47 O7          3.2220    1.3240    2.4780 o         1 MOL     -0.712430
     48 O8          2.0890    1.7980    4.1740 o         1 MOL     -0.712430
     49 H21         3.2490    3.1130    0.6370 hn        1 MOL      0.116843
     50 H22         5.0650    4.6840    2.4580 h1        1 MOL      0.100209
     51 H23         2.8740    4.2550    3.4280 hc        1 MOL      0.023190
     52 H24         4.1070    3.5170    4.3620 hc        1 MOL      0.023190
     53 N5          6.0110    2.4160    0.8000 n         1 MOL     -0.116937
     54 C17         7.3170    1.7260    0.5020 c3        1 MOL     -0.207817
     55 C18         7.5100    0.3030    1.0990 c         1 MOL      0.567543
     56 O9          8.5870    0.0910    1.6630 o         1 MOL     -0.602402
     57 H25         5.4860    2.7900    0.0220 hn        1 MOL      0.153543
     58 H26         8.1480    2.2690    0.9680 h1        1 MOL      0.092722
     59 H27         7.3770    1.6500   -0.5780 h1        1 MOL      0.092722
     60 N6          6.5980   -0.6480    1.0560 n         1 MOL     -0.198530
     61 C19         6.7470   -1.9740    1.5930 c3        1 MOL      0.014324
     62 C20         6.6610   -3.1150    0.5520 c         1 MOL      0.397423
     63 O10         6.6590   -4.2640    0.8760 o         1 MOL     -0.491416
     64 C21         5.7590   -2.0850    2.8110 c3        1 MOL     -0.278084
     65 C22         4.2510   -2.0900    2.4660 c         1 MOL      0.750523
     66 O11         3.8110   -2.4040    1.3520 o         1 MOL     -0.721343
     67 O12         3.4110   -1.8170    3.3880 o         1 MOL     -0.721343
     68 H28         5.8360   -0.5260    0.4080 hn        1 MOL      0.113701
     69 H29         7.7280   -2.1280    2.0330 h1        1 MOL      0.101433
     70 H30         6.0160   -1.3070    3.5340 hc        1 MOL      0.093597
     71 H31         6.0140   -3.0730    3.1960 hc        1 MOL      0.093597
     72 N7          6.5400   -2.7050   -0.7260 n         1 MOL     -0.309516
     73 C23         6.4090   -3.6050   -1.8250 c3        1 MOL     -0.011696
     74 C24         5.0970   -4.4600   -1.8000 c         1 MOL      0.423332
     75 O13         5.0600   -5.4920   -2.5180 o         1 MOL     -0.562731
     76 H32         6.6720   -1.7330   -0.9940 hn        1 MOL      0.246268
     77 H33         7.2600   -4.2840   -1.8740 h1        1 MOL      0.064745
     78 H34         6.4010   -3.1290   -2.8050 h1        1 MOL      0.064745
     79 N8          4.0850   -4.0320   -1.0450 n         1 MOL     -0.129276
     80 C25         2.7430   -4.6360   -1.1060 c3        1 MOL     -0.254706
     81 C26         1.5780   -3.5360   -1.0670 c         1 MOL      0.851181
     82 O14         1.8090   -2.3330   -0.8030 o         1 MOL     -0.689365
     83 C27         2.4800   -5.5790    0.1270 c3        1 MOL      0.394284
     84 C28         3.3540   -6.8150    0.1830 c3        1 MOL     -0.380825
     85 O15         2.4550   -4.8150    1.3460 oh        1 MOL     -0.654721
     86 H35         4.1050   -3.1830   -0.5060 hn        1 MOL      0.193465
     87 H36         2.6700   -5.2570   -1.9870 h1        1 MOL      0.102781
     88 H37         1.4670   -5.9730   -0.0180 h1        1 MOL      0.008343
     89 H38         3.2190   -4.2280    1.3700 ho        1 MOL      0.434175
     90 H39         4.4120   -6.5560    0.0670 hc        1 MOL      0.101824
     91 H40         3.1980   -7.4730    1.0390 hc        1 MOL      0.101824
     92 H41         3.0570   -7.4230   -0.6650 hc        1 MOL      0.101824
     93 N9          0.4130   -3.8750   -1.6130 n         1 MOL     -0.732636
     94 C29        -0.7580   -2.9860   -1.7120 c3        1 MOL      0.037075
     95 C30        -1.9170   -3.6780   -1.0730 c         1 MOL      0.535718
     96 O16        -2.2000   -4.8290   -1.4350 o         1 MOL     -0.575941
     97 C31        -1.1230   -2.8270   -3.2640 c3        1 MOL      0.229167
     98 C32         0.0160   -2.0940   -3.9770 c3        1 MOL      0.024679
     99 C33        -2.4060   -2.0010   -3.3190 c3        1 MOL     -0.272620
    100 C34        -0.1280   -2.2730   -5.4800 c3        1 MOL     -0.135802
    101 H42         0.1830   -4.8530   -1.7470 hn        1 MOL      0.324599
    102 H43        -0.6170   -2.0050   -1.2470 h1        1 MOL      0.127858
    103 H44        -1.3840   -3.7670   -3.7510 hc        1 MOL     -0.000791
    104 H45         0.9850   -2.5160   -3.6880 hc        1 MOL      0.033195
    105 H46         0.0560   -1.0360   -3.6980 hc        1 MOL      0.033195
    106 H47        -2.6380   -1.7920   -4.3600 hc        1 MOL      0.028298
    107 H48        -3.2730   -2.5070   -2.8680 hc        1 MOL      0.028298
    108 H49        -2.2620   -1.0220   -2.8700 hc        1 MOL      0.028298
    109 H50        -1.0660   -1.8850   -5.8830 hc        1 MOL      0.025587
    110 H51         0.6850   -1.7770   -6.0050 hc        1 MOL      0.025587
    111 H52        -0.0910   -3.3230   -5.7750 hc        1 MOL      0.025587
    112 N10        -2.5860   -3.0290   -0.1110 n         1 MOL     -0.222331
    113 C35        -3.9070   -3.4080    0.4880 c3        1 MOL      0.147329
    114 C36        -5.1060   -2.7820   -0.2270 c         1 MOL      0.280283
    115 O17        -4.9810   -1.8360   -1.0550 o         1 MOL     -0.304446
    116 C37        -3.8600   -2.9270    1.9580 c3        1 MOL      0.119104
    117 C38        -2.9130   -3.5820    2.9470 c3        1 MOL     -0.201392
    118 O18        -3.6780   -1.4940    1.9040 oh        1 MOL     -0.400977
    119 H53        -2.2240   -2.1120    0.1140 hn        1 MOL      0.183127
    120 H54        -4.0400   -4.4840    0.4180 h1        1 MOL      0.039623
    121 H55        -4.8560   -3.0450    2.3720 h1        1 MOL     -0.009985
    122 H56        -3.4860   -1.1180    2.7750 ho        1 MOL      0.340788
    123 H57        -3.4250   -4.4830    3.2770 hc        1 MOL      0.063055
    124 H58        -2.0010   -3.7620    2.3770 hc        1 MOL      0.063055
    125 H59        -2.6910   -2.9390    3.8010 hc        1 MOL      0.063055
    126 N11        -6.3190   -3.1570    0.2030 n         1 MOL     -0.191548
    127 C39        -7.5810   -2.5990   -0.3220 c3        1 MOL     -0.341279
    128 C40        -7.6710   -1.1270   -0.0890 c         1 MOL      0.473398
    129 O19        -8.1300   -0.3450   -0.9330 o         1 MOL     -0.503500
    130 C41        -8.8230   -3.2070    0.2930 c3        1 MOL      0.336096
    131 C42        -9.0640   -4.6840   -0.0140 c3        1 MOL     -0.349127
    132 O20        -8.7170   -3.1930    1.7060 oh        1 MOL     -0.640748
    133 H60        -6.5600   -3.8940    0.8560 hn        1 MOL      0.261879
    134 H61        -7.5790   -2.8080   -1.3860 h1        1 MOL      0.192484
    135 H62        -9.6960   -2.6300   -0.0170 h1        1 MOL      0.063388
    136 H63        -9.5450   -3.4890    2.0710 ho        1 MOL      0.419330
    137 H64        -8.5330   -5.3780    0.6340 hc        1 MOL      0.097835
    138 H65       -10.1130   -4.7830    0.2460 hc        1 MOL      0.097835
    139 H66        -9.0050   -4.9450   -1.0680 hc        1 MOL      0.097835
    140 N12        -6.9970   -0.6270    0.9730 n         1 MOL     -0.231275
    141 C43        -6.9250    0.8120    1.4360 c3        1 MOL     -0.139731
    142 C44        -6.1070    1.6960    0.4330 c         1 MOL      0.379912
    143 O21        -6.5310    2.7520   -0.0210 o         1 MOL     -0.500449
    144 C45        -6.3270    0.8640    2.8850 c3        1 MOL     -0.141374
    145 C46        -6.5950    2.2650    3.4700 c3        1 MOL     -0.090155
    146 C47        -5.8830    2.5010    4.8570 c3        1 MOL      0.042970
    147 C48        -6.1350    3.8550    5.4500 c3        1 MOL      0.103745
    148 N13        -5.1510    4.2100    6.4560 n4        1 MOL     -0.319490
    149 H67        -6.5120   -1.2960    1.5570 hn        1 MOL      0.192023
    150 H68        -7.9590    1.1400    1.3630 h1        1 MOL      0.151546
    151 H69        -5.2780    0.5710    2.9740 hc        1 MOL      0.068462
    152 H70        -6.8930    0.1820    3.5180 hc        1 MOL      0.068462
    153 H71        -7.6680    2.4850    3.5200 hc        1 MOL      0.060774
    154 H72        -6.1430    2.9930    2.8110 hc        1 MOL      0.060774
    155 H73        -4.8100    2.4070    4.6810 hc        1 MOL      0.010718
    156 H74        -6.0380    1.7500    5.6350 hc        1 MOL      0.010718
    157 H75        -7.1340    3.7970    5.8870 hx        1 MOL      0.051325
    158 H76        -6.2630    4.5900    4.6620 hx        1 MOL      0.051325
    159 H77        -4.2590    4.3210    5.9880 hn        1 MOL      0.287135
    160 H78        -5.3660    5.0990    6.8760 hn        1 MOL      0.287135
    161 H79        -5.0330    3.5080    7.1740 hn        1 MOL      0.287135
    162 N14        -4.9810    1.1090   -0.0580 n         1 MOL      0.093680
    163 C49        -4.1430    1.7910   -1.0290 c3        1 MOL     -0.328410
    164 C50        -4.8210    1.8010   -2.4120 c         1 MOL      0.534232
    165 O22        -4.6810    2.8030   -3.1250 o         1 MOL     -0.582414
    166 C51        -2.7580    1.0790   -1.0330 c3        1 MOL      0.015342
    167 C52        -1.9740    1.5320    0.2380 c3        1 MOL     -0.163441
    168 C53        -0.6360    0.8220    0.4450 c         1 MOL      0.787534
    169 O23        -0.4920   -0.4410    0.4420 o         1 MOL     -0.795032
    170 O24         0.3760    1.4670    0.7630 o         1 MOL     -0.795032
    171 H80        -4.8130    0.1470    0.1770 hn        1 MOL      0.006612
    172 H81        -4.1100    2.8250   -0.6910 h1        1 MOL      0.136866
    173 H82        -2.1910    1.2660   -1.9320 hc        1 MOL      0.061857
    174 H83        -2.8980    0.0020   -0.9440 hc        1 MOL      0.061857
    175 H84        -2.6170    1.2670    1.0780 hc        1 MOL      0.016489
    176 H85        -1.8070    2.6010    0.3030 hc        1 MOL      0.016489
    177 N15        -5.5590    0.7710   -2.8030 n         1 MOL     -0.112923
    178 C54        -6.3610    0.7610   -4.0720 c3        1 MOL     -0.317359
    179 H86        -6.4610   -0.2630   -4.4300 h1        1 MOL      0.123394
    180 H87        -7.3500    1.1770   -3.8790 h1        1 MOL      0.123394
    181 H88        -5.8540    1.3620   -4.8270 h1        1 MOL      0.123394
    182 H89        -5.5610   -0.0730   -2.2460 hn        1 MOL      0.155419
    183 Ca1         1.9410   -0.5900    1.2930 Ca        1 MOL      1.760682
    184 O25         0.2880   -0.0000    3.3090 oh        1 MOL     -0.775800
    185 H90         0.5920    0.6940    3.8830 ho        1 MOL      0.366547
    186 H91        -0.6110   -0.1540    3.5740 ho        1 MOL      0.366547
    187 O26         0.7260   -3.0390    2.1810 oh        1 MOL     -0.775800
    188 H92         0.7150   -3.1190    3.1320 ho        1 MOL      0.366547
    189 H93         1.3210   -3.7340    1.8900 ho        1 MOL      0.366547
@<TRIPOS>BOND
     1    1    2 1   
     2    1    4 1   
     3    1    5 1   
     4    1    6 1   
     5    2    3 2   
     6    2    7 1   
     7    7    8 1   
     8    7   15 1   
     9    8    9 1   
    10    8   11 1   
    11    8   16 1   
    12    9   10 2   
    13    9   19 1   
    14   11   12 1   
    15   11   17 1   
    16   11   18 1   
    17   12   13 1   
    18   12   14 1   
    19   19   20 1   
    20   19   28 1   
    21   20   21 1   
    22   20   23 1   
    23   20   29 1   
    24   21   22 2   
    25   21   41 1   
    26   23   24 1   
    27   23   30 1   
    28   23   31 1   
    29   24   25 1   
    30   24   32 1   
    31   24   33 1   
    32   25   26 1   
    33   25   34 1   
    34   25   35 1   
    35   26   27 1   
    36   26   36 1   
    37   26   37 1   
    38   27   38 1   
    39   27   39 1   
    40   27   40 1   
    41   41   42 1   
    42   41   49 1   
    43   42   43 1   
    44   42   45 1   
    45   42   50 1   
    46   43   44 2   
    47   43   53 1   
    48   45   46 1   
    49   45   51 1   
    50   45   52 1   
    51   46   47 1   
    52   46   48 1   
    53   53   54 1   
    54   53   57 1   
    55   54   55 1   
    56   54   58 1   
    57   54   59 1   
    58   55   56 2   
    59   55   60 1   
    60   60   61 1   
    61   60   68 1   
    62   61   62 1   
    63   61   64 1   
    64   61   69 1   
    65   62   63 2   
    66   62   72 1   
    67   64   65 1   
    68   64   70 1   
    69   64   71 1   
    70   65   66 1   
    71   65   67 1   
    72   72   73 1   
    73   72   76 1   
    74   73   74 1   
    75   73   77 1   
    76   73   78 1   
    77   74   75 2   
    78   74   79 1   
    79   79   80 1   
    80   79   86 1   
    81   80   81 1   
    82   80   83 1   
    83   80   87 1   
    84   81   82 2   
    85   81   93 1   
    86   83   84 1   
    87   83   85 1   
    88   83   88 1   
    89   84   90 1   
    90   84   91 1   
    91   84   92 1   
    92   85   89 1   
    93   93   94 1   
    94   93  101 1   
    95   94   95 1   
    96   94   97 1   
    97   94  102 1   
    98   95   96 2   
    99   95  112 1   
   100   97   98 1   
   101   97   99 1   
   102   97  103 1   
   103   98  100 1   
   104   98  104 1   
   105   98  105 1   
   106   99  106 1   
   107   99  107 1   
   108   99  108 1   
   109  100  109 1   
   110  100  110 1   
   111  100  111 1   
   112  112  113 1   
   113  112  119 1   
   114  113  114 1   
   115  113  116 1   
   116  113  120 1   
   117  114  115 2   
   118  114  126 1   
   119  116  117 1   
   120  116  118 1   
   121  116  121 1   
   122  117  123 1   
   123  117  124 1   
   124  117  125 1   
   125  118  122 1   
   126  126  127 1   
   127  126  133 1   
   128  127  128 1   
   129  127  130 1   
   130  127  134 1   
   131  128  129 2   
   132  128  140 1   
   133  130  131 1   
   134  130  132 1   
   135  130  135 1   
   136  131  137 1   
   137  131  138 1   
   138  131  139 1   
   139  132  136 1   
   140  140  141 1   
   141  140  149 1   
   142  141  142 1   
   143  141  144 1   
   144  141  150 1   
   145  142  143 2   
   146  142  162 1   
   147  144  145 1   
   148  144  151 1   
   149  144  152 1   
   150  145  146 1   
   151  145  153 1   
   152  145  154 1   
   153  146  147 1   
   154  146  155 1   
   155  146  156 1   
   156  147  148 1   
   157  147  157 1   
   158  147  158 1   
   159  148  159 1   
   160  148  160 1   
   161  148  161 1   
   162  162  163 1   
   163  162  171 1   
   164  163  164 1   
   165  163  166 1   
   166  163  172 1   
   167  164  165 2   
   168  164  177 1   
   169  166  167 1   
   170  166  173 1   
   171  166  174 1   
   172  167  168 1   
   173  167  175 1   
   174  167  176 1   
   175  168  169 1   
   176  168  170 1   
   177  177  178 1   
   178  177  182 1   
   179  178  179 1   
   180  178  180 1   
   181  178  181 1   
   182  184  185 1   
   183  184  186 1   
   184  187  188 1   
   185  187  189 1   
@<TRIPOS>SUBSTRUCTURE
     1 MOL         1 TEMP              0 ****  ****    0 ROOT
