@<TRIPOS>MOLECULE
MOL
  186   183     1     0     0
SMALL
resp


@<TRIPOS>ATOM
      1 C1          0.2810   -1.9070    6.0480 c3        1 MOL     -0.291946
      2 C2          0.6680   -1.8270    4.5780 c         1 MOL      0.877961
      3 O1         -0.1030   -2.2870    3.8230 o         1 MOL     -0.595394
      4 H1         -0.5990   -1.2900    6.2270 hc        1 MOL      0.053668
      5 H2          0.0570   -2.9420    6.3100 hc        1 MOL      0.053668
      6 H3          1.1070   -1.5480    6.6620 hc        1 MOL      0.053668
      7 N1          1.8260   -1.2880    4.2070 n         1 MOL     -0.753117
      8 C3          2.5170   -1.4420    2.9450 c3        1 MOL      0.216519
      9 C4          2.8970   -2.9000    2.6310 c         1 MOL      0.579193
     10 O2          3.2310   -3.6330    3.5650 o         1 MOL     -0.585935
     11 C5          3.7330   -0.4640    2.9000 c3        1 MOL     -0.171553
     12 C6          4.6130   -0.6750    1.6930 c         1 MOL      0.640842
     13 O3          5.8210   -0.4690    1.7550 o         1 MOL     -0.622953
     14 O4          4.0320   -0.8770    0.6310 o         1 MOL     -0.622953
     15 H4          2.4350   -0.9480    4.9380 hn        1 MOL      0.338308
     16 H5          1.8690   -1.0540    2.1630 h1        1 MOL      0.025356
     17 H6          4.2330   -0.5400    3.8620 hc        1 MOL      0.021455
     18 H7          3.3380    0.5550    2.8930 hc        1 MOL      0.021455
     19 N2          2.6760   -3.3880    1.3800 n         1 MOL     -0.300379
     20 C7          2.8370   -4.8250    1.0270 c3        1 MOL     -0.196790
     21 C8          4.0110   -5.0690    0.1080 c         1 MOL      0.722577
     22 O5          4.6090   -6.1620    0.1000 o         1 MOL     -0.618148
     23 C9          1.4470   -5.4250    0.5090 c3        1 MOL      0.301835
     24 C10         0.3940   -5.3720    1.5990 c3        1 MOL      0.302414
     25 C11         1.5510   -6.8130   -0.1160 c3        1 MOL     -0.498037
     26 C12        -1.0000   -5.8880    1.1590 c3        1 MOL     -0.341734
     27 H8          2.4860   -2.7190    0.6510 hn        1 MOL      0.038929
     28 H9          2.9890   -5.3180    1.9880 h1        1 MOL      0.090201
     29 H10         1.1160   -4.7150   -0.2430 hc        1 MOL     -0.018433
     30 H11         0.3240   -4.4500    2.1730 hc        1 MOL     -0.068336
     31 H12         0.7470   -6.0500    2.3790 hc        1 MOL     -0.068336
     32 H13         1.9820   -7.4730    0.6480 hc        1 MOL      0.099854
     33 H14         0.6170   -7.1880   -0.5440 hc        1 MOL      0.099854
     34 H15         2.2790   -6.7080   -0.9220 hc        1 MOL      0.099854
     35 H16        -1.6740   -5.6390    1.9740 hc        1 MOL      0.074427
     36 H17        -1.3420   -5.3190    0.2850 hc        1 MOL      0.074427
     37 H18        -1.1460   -6.9460    0.9620 hc        1 MOL      0.074427
     38 N3          4.5920   -4.0430   -0.5030 n         1 MOL     -0.686220
     39 C13         5.5070   -4.1270   -1.6260 c3        1 MOL      0.195432
     40 C14         6.6820   -3.2530   -1.4230 c         1 MOL      0.390849
     41 O6          7.5530   -3.1470   -2.3300 o         1 MOL     -0.536020
     42 C15         4.7900   -3.8790   -2.9940 c3        1 MOL     -0.242412
     43 C16         3.8320   -2.7190   -3.0370 c         1 MOL      0.811740
     44 O7          2.9480   -2.6490   -3.9100 o         1 MOL     -0.723512
     45 O8          3.9030   -1.8710   -2.1260 o         1 MOL     -0.723512
     46 H19         3.9830   -3.2320   -0.4480 hn        1 MOL      0.480289
     47 H20         5.9460   -5.1270   -1.7030 h1        1 MOL      0.062288
     48 H21         4.2210   -4.7970   -3.1500 hc        1 MOL      0.049286
     49 H22         5.5900   -3.7950   -3.7310 hc        1 MOL      0.049286
     50 N4          6.8410   -2.5580   -0.2940 n         1 MOL     -0.168834
     51 C17         7.9890   -1.7750    0.0970 c3        1 MOL     -0.217539
     52 C18         8.1660   -0.5030   -0.7490 c         1 MOL      0.618858
     53 O9          9.1880   -0.3520   -1.4430 o         1 MOL     -0.608637
     54 H23         6.0450   -2.4700    0.3240 hn        1 MOL      0.196218
     55 H24         8.9080   -2.3490   -0.0150 h1        1 MOL      0.084289
     56 H25         8.0130   -1.4190    1.1260 h1        1 MOL      0.084289
     57 N5          7.2630    0.4480   -0.5650 n         1 MOL     -0.250764
     58 C19         7.4240    1.8060   -1.0810 c3        1 MOL      0.089890
     59 C20         7.1800    2.7970   -0.0050 c         1 MOL      0.463411
     60 O10         7.3600    3.9270   -0.3050 o         1 MOL     -0.535918
     61 C21         6.5570    2.0420   -2.3180 c3        1 MOL     -0.132944
     62 C22         5.1560    1.6580   -2.0190 c         1 MOL      0.902331
     63 O11         4.5980    1.0810   -2.9170 o         1 MOL     -0.779406
     64 O12         4.6070    2.0040   -0.9410 o         1 MOL     -0.779406
     65 H26         6.5140    0.2960    0.0940 hn        1 MOL     -0.014505
     66 H27         8.4840    1.9540   -1.2880 h1        1 MOL      0.042203
     67 H28         7.0070    1.4210   -3.0840 hc        1 MOL      0.026627
     68 H29         6.6370    3.0920   -2.6060 hc        1 MOL      0.026627
     69 N6          6.7450    2.4560    1.2410 n         1 MOL     -0.393133
     70 C23         6.4340    3.4880    2.2940 c3        1 MOL      0.061772
     71 C24         5.0740    4.1070    2.2440 c         1 MOL      0.457673
     72 O13         4.8620    5.1480    2.8890 o         1 MOL     -0.615028
     73 H30         6.7530    1.4940    1.5440 hn        1 MOL      0.275616
     74 H31         7.2200    4.2390    2.2610 h1        1 MOL      0.037474
     75 H32         6.6120    3.0130    3.2580 h1        1 MOL      0.037474
     76 N7          4.2250    3.6490    1.3740 n         1 MOL     -0.369773
     77 C25         2.8870    4.1990    1.0490 c3        1 MOL      0.369127
     78 C26         1.7820    3.0990    1.0030 c         1 MOL      0.390032
     79 O14         2.0960    1.9390    0.6880 o         1 MOL     -0.608751
     80 C27         2.8400    4.9420   -0.3470 c3        1 MOL     -0.100347
     81 C28         3.6690    6.2120   -0.3130 c3        1 MOL     -0.176245
     82 C29         3.4410    7.2650   -1.5560 c         1 MOL      0.700774
     83 N8          4.2760    8.2780   -1.6370 n         1 MOL     -0.817149
     84 O15         2.4620    7.3250   -2.2210 o         1 MOL     -0.556281
     85 H33         4.5570    2.9210    0.7590 hn        1 MOL      0.333266
     86 H34         2.5190    4.8630    1.8280 h1        1 MOL     -0.028367
     87 H35         1.8000    5.2450   -0.4650 hc        1 MOL      0.032833
     88 H36         3.2410    4.3340   -1.1660 hc        1 MOL      0.032833
     89 H37         4.6920    5.8470   -0.3250 hc        1 MOL      0.049906
     90 H38         3.4980    6.8000    0.5870 hc        1 MOL      0.049906
     91 H39         5.0700    8.3620   -1.0230 hn        1 MOL      0.347002
     92 H40         3.8900    9.1300   -2.0380 hn        1 MOL      0.347002
     93 N9          0.5260    3.4100    1.3970 n         1 MOL     -0.408375
     94 C30        -0.6360    2.4640    1.4960 c3        1 MOL      0.041165
     95 C31        -1.7880    2.8800    0.6810 c         1 MOL      0.441135
     96 O16        -2.5390    3.7980    1.0150 o         1 MOL     -0.549841
     97 C32        -1.0580    2.3990    2.9860 c3        1 MOL      0.089802
     98 C33        -2.2120    1.5310    3.4310 c3        1 MOL     -0.203016
     99 C34         0.1030    1.9300    3.8380 c3        1 MOL     -0.203016
    100 H41         0.3220    4.3800    1.5920 hn        1 MOL      0.288372
    101 H42        -0.2930    1.4530    1.2930 h1        1 MOL      0.196014
    102 H43        -1.2340    3.4490    3.2320 hc        1 MOL     -0.023148
    103 H44        -3.0130    1.8180    2.7450 hc        1 MOL      0.044839
    104 H45        -1.8520    0.5100    3.3070 hc        1 MOL      0.044839
    105 H46        -2.5300    1.7110    4.4650 hc        1 MOL      0.044839
    106 H47         0.9710    2.5900    3.8310 hc        1 MOL      0.044839
    107 H48        -0.1930    1.7860    4.8810 hc        1 MOL      0.044839
    108 H49         0.4430    0.9240    3.5830 hc        1 MOL      0.044839
    109 N10        -2.0130    2.2830   -0.4750 n         1 MOL     -0.332466
    110 C35        -3.3180    2.4400   -1.1450 c3        1 MOL      0.062125
    111 C36        -4.4430    1.9470   -0.2730 c         1 MOL      0.334127
    112 O17        -4.2500    0.9880    0.5410 o         1 MOL     -0.181975
    113 C37        -3.1370    1.7110   -2.4830 c3        1 MOL     -0.391035
    114 C38        -4.2790    1.6520   -3.5180 c         1 MOL      0.649592
    115 N11        -4.1180    0.7960   -4.4810 n         1 MOL     -0.718601
    116 O18        -5.3230    2.2190   -3.4030 o         1 MOL     -0.576168
    117 H50        -1.4060    1.5480   -0.8010 hn        1 MOL      0.215494
    118 H51        -3.4970    3.4880   -1.3390 h1        1 MOL      0.081186
    119 H52        -2.7350    0.7220   -2.2900 hc        1 MOL      0.131010
    120 H53        -2.2180    2.1410   -2.8860 hc        1 MOL      0.131010
    121 H54        -3.3710    0.1140   -4.5280 hn        1 MOL      0.344288
    122 H55        -4.8600    0.7070   -5.1660 hn        1 MOL      0.344288
    123 N12        -5.6550    2.5070   -0.5370 n         1 MOL     -0.464606
    124 C39        -6.9080    1.8870   -0.0090 c3        1 MOL     -0.039303
    125 C40        -6.9520    0.3660   -0.0990 c         1 MOL      0.824873
    126 O19        -7.5060   -0.2650    0.7770 o         1 MOL     -0.544524
    127 C41        -8.0470    2.6640   -0.6720 c3        1 MOL     -0.052129
    128 C42        -9.3960    2.2220   -0.0400 ca        1 MOL     -0.184925
    129 C43        -9.8850    2.8120    1.1210 ca        1 MOL     -0.019929
    130 C44       -10.0880    1.1210   -0.5990 ca        1 MOL     -0.019929
    131 C45       -11.0970    2.2930    1.6510 ca        1 MOL     -0.389197
    132 C46       -11.3150    0.6420   -0.1080 ca        1 MOL     -0.389197
    133 C47       -11.8110    1.2540    1.0490 ca        1 MOL      0.508146
    134 O20       -12.9790    0.9550    1.5840 oh        1 MOL     -0.560148
    135 H56        -5.7950    3.2910   -1.1670 hn        1 MOL      0.296823
    136 H57        -6.8730    2.0550    1.0700 h1        1 MOL      0.087279
    137 H58        -7.9360    2.5970   -1.7510 hc        1 MOL      0.067506
    138 H59        -7.9810    3.7410   -0.5110 hc        1 MOL      0.067506
    139 H60        -9.5210    3.7150    1.6020 ha        1 MOL      0.108625
    140 H61        -9.6360    0.5540   -1.3920 ha        1 MOL      0.108625
    141 H62       -11.5200    2.7780    2.5220 ha        1 MOL      0.163656
    142 H63       -11.7100   -0.2840   -0.4770 ha        1 MOL      0.163656
    143 H64       -13.5660    0.5550    0.9270 ho        1 MOL      0.380864
    144 N13        -6.3880   -0.2130   -1.1190 n         1 MOL     -0.625270
    145 C48        -6.4670   -1.6950   -1.2250 c3        1 MOL      0.020418
    146 C49        -5.5340   -2.4300   -0.3150 c         1 MOL      0.260044
    147 O21        -5.7870   -3.5860    0.0290 o         1 MOL     -0.518402
    148 C50        -6.4770   -2.2010   -2.6230 c3        1 MOL      0.192090
    149 C51        -5.1830   -2.6530   -3.2600 c3        1 MOL     -0.169173
    150 C52        -5.5130   -3.0220   -4.7150 c         1 MOL      0.673723
    151 O22        -5.8470   -4.1850   -4.9380 o         1 MOL     -0.719054
    152 O23        -5.5950   -2.1560   -5.6110 o         1 MOL     -0.719054
    153 H65        -5.9530    0.3790   -1.8130 hn        1 MOL      0.356667
    154 H66        -7.4460   -1.9410   -0.8040 h1        1 MOL      0.081426
    155 H67        -6.9130   -1.3720   -3.1710 hc        1 MOL     -0.030042
    156 H68        -7.1700   -3.0470   -2.6490 hc        1 MOL     -0.030042
    157 H69        -4.6350   -3.4020   -2.6820 hc        1 MOL      0.008493
    158 H70        -4.4620   -1.8280   -3.2430 hc        1 MOL      0.008493
    159 N14        -4.4790   -1.8130    0.0920 n         1 MOL     -0.041573
    160 C53        -3.5810   -2.2590    1.1610 c3        1 MOL     -0.069890
    161 C54        -4.1610   -2.0120    2.5500 c         1 MOL      0.442950
    162 O24        -3.9630   -2.7800    3.4910 o         1 MOL     -0.534645
    163 C55        -2.2360   -1.5660    0.9360 c3        1 MOL     -0.029049
    164 C56        -1.3040   -2.1160   -0.1230 c3        1 MOL      0.067169
    165 C57        -0.0750   -1.2020   -0.3970 c         1 MOL      0.492384
    166 O25         1.0670   -1.7000   -0.3570 o         1 MOL     -0.611008
    167 O26        -0.2200    0.0180   -0.7140 o         1 MOL     -0.611008
    168 H71        -4.3900   -0.8600   -0.2250 hn        1 MOL      0.151053
    169 H72        -3.4810   -3.3440    1.1560 h1        1 MOL      0.097275
    170 H73        -1.6650   -1.7360    1.8520 hc        1 MOL      0.057927
    171 H74        -2.3260   -0.5100    0.6700 hc        1 MOL      0.057927
    172 H75        -1.9190   -2.2280   -1.0190 hc        1 MOL     -0.030984
    173 H76        -0.9830   -3.1000    0.2180 hc        1 MOL     -0.030984
    174 N15        -5.0570   -0.9900    2.6910 n         1 MOL     -0.058238
    175 C58        -5.6130   -0.5380    3.9780 c3        1 MOL     -0.281800
    176 H77        -6.3480    0.2470    3.7990 h1        1 MOL      0.100742
    177 H78        -6.0920   -1.3770    4.4830 h1        1 MOL      0.100742
    178 H79        -4.8100   -0.1470    4.6030 h1        1 MOL      0.100742
    179 H80        -5.2510   -0.3800    1.9040 hn        1 MOL     -0.037698
    180 Ca1         2.6480    0.2280   -1.2890 Ca        1 MOL      1.691794
    181 O27         1.5640   -0.4100   -3.6670 oh        1 MOL     -0.851804
    182 H81         2.2220   -1.1070   -3.6860 ho        1 MOL      0.401511
    183 H82         1.4560   -0.1410   -4.5720 ho        1 MOL      0.401511
    184 O28         1.4840    2.3630   -2.6840 oh        1 MOL     -0.851804
    185 H83         1.5680    3.2680   -2.9940 ho        1 MOL      0.401511
    186 H84         0.9180    1.9330   -3.3310 ho        1 MOL      0.401511
@<TRIPOS>BOND
     1    1    2 1   
     2    1    4 1   
     3    1    5 1   
     4    1    6 1   
     5    2    3 2   
     6    2    7 1   
     7    7    8 1   
     8    7   15 1   
     9    8    9 1   
    10    8   11 1   
    11    8   16 1   
    12    9   10 2   
    13    9   19 1   
    14   11   12 1   
    15   11   17 1   
    16   11   18 1   
    17   12   13 1   
    18   12   14 1   
    19   19   20 1   
    20   19   27 1   
    21   20   21 1   
    22   20   23 1   
    23   20   28 1   
    24   21   22 2   
    25   21   38 1   
    26   23   24 1   
    27   23   25 1   
    28   23   29 1   
    29   24   26 1   
    30   24   30 1   
    31   24   31 1   
    32   25   32 1   
    33   25   33 1   
    34   25   34 1   
    35   26   35 1   
    36   26   36 1   
    37   26   37 1   
    38   38   39 1   
    39   38   46 1   
    40   39   40 1   
    41   39   42 1   
    42   39   47 1   
    43   40   41 2   
    44   40   50 1   
    45   42   43 1   
    46   42   48 1   
    47   42   49 1   
    48   43   44 1   
    49   43   45 1   
    50   50   51 1   
    51   50   54 1   
    52   51   52 1   
    53   51   55 1   
    54   51   56 1   
    55   52   53 2   
    56   52   57 1   
    57   57   58 1   
    58   57   65 1   
    59   58   59 1   
    60   58   61 1   
    61   58   66 1   
    62   59   60 2   
    63   59   69 1   
    64   61   62 1   
    65   61   67 1   
    66   61   68 1   
    67   62   63 1   
    68   62   64 1   
    69   69   70 1   
    70   69   73 1   
    71   70   71 1   
    72   70   74 1   
    73   70   75 1   
    74   71   72 2   
    75   71   76 1   
    76   76   77 1   
    77   76   85 1   
    78   77   78 1   
    79   77   80 1   
    80   77   86 1   
    81   78   79 2   
    82   78   93 1   
    83   80   81 1   
    84   80   87 1   
    85   80   88 1   
    86   81   82 1   
    87   81   89 1   
    88   81   90 1   
    89   82   83 1   
    90   82   84 2   
    91   83   91 1   
    92   83   92 1   
    93   93   94 1   
    94   93  100 1   
    95   94   95 1   
    96   94   97 1   
    97   94  101 1   
    98   95   96 2   
    99   95  109 1   
   100   97   98 1   
   101   97   99 1   
   102   97  102 1   
   103   98  103 1   
   104   98  104 1   
   105   98  105 1   
   106   99  106 1   
   107   99  107 1   
   108   99  108 1   
   109  109  110 1   
   110  109  117 1   
   111  110  111 1   
   112  110  113 1   
   113  110  118 1   
   114  111  112 2   
   115  111  123 1   
   116  113  114 1   
   117  113  119 1   
   118  113  120 1   
   119  114  115 1   
   120  114  116 2   
   121  115  121 1   
   122  115  122 1   
   123  123  124 1   
   124  123  135 1   
   125  124  125 1   
   126  124  127 1   
   127  124  136 1   
   128  125  126 2   
   129  125  144 1   
   130  127  128 1   
   131  127  137 1   
   132  127  138 1   
   133  128  129 ar  
   134  128  130 ar  
   135  129  131 ar  
   136  129  139 1   
   137  130  132 ar  
   138  130  140 1   
   139  131  133 ar  
   140  131  141 1   
   141  132  133 ar  
   142  132  142 1   
   143  133  134 1   
   144  134  143 1   
   145  144  145 1   
   146  144  153 1   
   147  145  146 1   
   148  145  148 1   
   149  145  154 1   
   150  146  147 2   
   151  146  159 1   
   152  148  149 1   
   153  148  155 1   
   154  148  156 1   
   155  149  150 1   
   156  149  157 1   
   157  149  158 1   
   158  150  151 1   
   159  150  152 1   
   160  159  160 1   
   161  159  168 1   
   162  160  161 1   
   163  160  163 1   
   164  160  169 1   
   165  161  162 2   
   166  161  174 1   
   167  163  164 1   
   168  163  170 1   
   169  163  171 1   
   170  164  165 1   
   171  164  172 1   
   172  164  173 1   
   173  165  166 1   
   174  165  167 1   
   175  174  175 1   
   176  174  179 1   
   177  175  176 1   
   178  175  177 1   
   179  175  178 1   
   180  181  182 1   
   181  181  183 1   
   182  184  185 1   
   183  184  186 1   
@<TRIPOS>SUBSTRUCTURE
     1 MOL         1 TEMP              0 ****  ****    0 ROOT
