@<TRIPOS>MOLECULE
MOL
  189   185     1     0     0
SMALL
resp


@<TRIPOS>ATOM
      1 C1         -0.1710    2.7740   -5.6820 c3        1 MOL     -0.396214
      2 C2          0.3600    2.6690   -4.2100 c         1 MOL      0.833917
      3 O1         -0.4260    2.9110   -3.2770 o         1 MOL     -0.618143
      4 H1         -0.9620    3.5230   -5.7290 hc        1 MOL      0.098683
      5 H2          0.6450    3.0650   -6.3430 hc        1 MOL      0.098683
      6 H3         -0.5670    1.8090   -5.9960 hc        1 MOL      0.098683
      7 N1          1.5230    2.0720   -3.9930 n         1 MOL     -0.864807
      8 C3          2.1040    1.8560   -2.6640 c3        1 MOL      0.535898
      9 C4          2.4550    3.2290   -2.0530 c         1 MOL      0.345442
     10 O2          3.1750    4.0930   -2.5550 o         1 MOL     -0.566883
     11 C5          3.3630    0.8730   -2.6890 c3        1 MOL     -0.455899
     12 C6          4.0880    0.5810   -1.4200 c         1 MOL      0.891026
     13 O3          3.4450    0.7940   -0.3300 o         1 MOL     -0.687853
     14 O4          5.1860   -0.0610   -1.4530 o         1 MOL     -0.687853
     15 H4          1.9690    1.7110   -4.8250 hn        1 MOL      0.389990
     16 H5          1.4110    1.3710   -1.9780 h1        1 MOL     -0.079750
     17 H6          4.0050    1.3220   -3.4490 hc        1 MOL      0.092714
     18 H7          2.8360   -0.0160   -3.0520 hc        1 MOL      0.092714
     19 N2          1.9380    3.4860   -0.8120 n         1 MOL     -0.036002
     20 C7          2.0100    4.8370   -0.1400 c3        1 MOL     -0.072402
     21 C8          2.9200    4.7580    1.0760 c         1 MOL      0.620292
     22 O5          3.1420    5.8310    1.6910 o         1 MOL     -0.615316
     23 C9          0.5710    5.3160    0.1910 c3        1 MOL     -0.102652
     24 C10        -0.2160    5.6780   -1.0610 c3        1 MOL      0.194145
     25 C11         0.3720    6.4420   -2.1850 c3        1 MOL     -0.098051
     26 C12        -0.7250    6.8770   -3.1800 c3        1 MOL     -0.066762
     27 N3         -0.2390    7.5960   -4.3130 n4        1 MOL     -0.120577
     28 H8          1.3750    2.7700   -0.3770 hn        1 MOL      0.163663
     29 H9          2.5790    5.5090   -0.7750 h1        1 MOL      0.056776
     30 H10         0.5880    6.2240    0.7830 hc        1 MOL      0.035163
     31 H11         0.1640    4.5430    0.8390 hc        1 MOL      0.035163
     32 H12        -1.1450    6.1420   -0.7220 hc        1 MOL     -0.043154
     33 H13        -0.3860    4.7030   -1.5200 hc        1 MOL     -0.043154
     34 H14         1.0840    5.7440   -2.6360 hc        1 MOL      0.037025
     35 H15         0.8320    7.2820   -1.6610 hc        1 MOL      0.037025
     36 H16        -1.3640    7.5380   -2.6000 hx        1 MOL      0.096144
     37 H17        -1.2360    5.9820   -3.5610 hx        1 MOL      0.096144
     38 H18         0.4330    8.2850   -4.0060 hn        1 MOL      0.267386
     39 H19         0.2620    7.0810   -5.0180 hn        1 MOL      0.267386
     40 H20        -0.9810    8.1350   -4.7360 hn        1 MOL      0.267386
     41 N4          3.6170    3.6770    1.3650 n         1 MOL     -0.324282
     42 C13         4.6440    3.5110    2.4330 c3        1 MOL     -0.031006
     43 C14         5.8530    2.7080    1.9990 c         1 MOL      0.455386
     44 O6          6.9280    2.6550    2.6950 o         1 MOL     -0.530609
     45 C15         3.9780    2.9870    3.7680 c3        1 MOL     -0.147570
     46 C16         3.1880    1.7190    3.7120 c         1 MOL      0.771839
     47 O7          2.6860    1.1690    4.7200 o         1 MOL     -0.693121
     48 O8          3.1560    1.1050    2.6390 o         1 MOL     -0.693121
     49 H21         3.3980    2.8240    0.8780 hn        1 MOL      0.066809
     50 H22         5.0680    4.4940    2.6240 h1        1 MOL      0.113373
     51 H23         3.3530    3.7180    4.2860 hc        1 MOL      0.042509
     52 H24         4.8150    2.7670    4.4350 hc        1 MOL      0.042509
     53 N5          5.8370    2.2280    0.7700 n         1 MOL     -0.209187
     54 C17         7.0420    1.6850    0.2030 c3        1 MOL     -0.227645
     55 C18         7.5710    0.3540    0.6700 c         1 MOL      0.633804
     56 O9          8.7540    0.1430    0.6580 o         1 MOL     -0.577216
     57 H25         4.9580    2.1260    0.2720 hn        1 MOL      0.184072
     58 H26         7.8660    2.3920    0.3350 h1        1 MOL      0.090702
     59 H27         6.7780    1.5090   -0.8430 h1        1 MOL      0.090702
     60 N6          6.6180   -0.4310    1.2350 n         1 MOL     -0.379234
     61 C19         6.8820   -1.8040    1.7990 c3        1 MOL     -0.003492
     62 C20         6.8970   -2.8570    0.6760 c         1 MOL      0.418286
     63 O10         7.3420   -3.9580    0.9580 o         1 MOL     -0.536348
     64 C21         5.8820   -2.1080    2.9700 c3        1 MOL     -0.265085
     65 C22         4.4170   -2.0410    2.4210 c         1 MOL      0.687979
     66 O11         4.1660   -2.1620    1.2470 o         1 MOL     -0.681632
     67 O12         3.5000   -1.7330    3.2280 o         1 MOL     -0.681632
     68 H28         5.6600   -0.1270    1.1000 hn        1 MOL      0.293020
     69 H29         7.8940   -1.7980    2.1890 h1        1 MOL      0.115079
     70 H30         6.0410   -1.3460    3.7360 hc        1 MOL      0.097529
     71 H31         6.1400   -3.0580    3.4350 hc        1 MOL      0.097529
     72 N7          6.5400   -2.5190   -0.5410 n         1 MOL     -0.186740
     73 C23         6.3980   -3.3370   -1.6600 c3        1 MOL     -0.177513
     74 C24         5.1500   -4.1990   -1.6520 c         1 MOL      0.559456
     75 O13         5.1410   -5.2430   -2.2420 o         1 MOL     -0.576835
     76 H32         6.1510   -1.5910   -0.6570 hn        1 MOL      0.217447
     77 H33         7.2410   -4.0230   -1.5680 h1        1 MOL      0.090671
     78 H34         6.4790   -2.8690   -2.6420 h1        1 MOL      0.090671
     79 N8          4.0870   -3.7290   -1.0500 n         1 MOL     -0.159659
     80 C25         2.7500   -4.3260   -1.1580 c3        1 MOL     -0.351249
     81 C26         1.6840   -3.2070   -1.3630 c         1 MOL      0.895799
     82 O14         1.9860   -2.1060   -1.0160 o         1 MOL     -0.738639
     83 C27         2.3990   -5.2630    0.0130 c3        1 MOL      0.470902
     84 C28         3.0270   -6.5930   -0.0340 c3        1 MOL     -0.408009
     85 O15         2.7960   -4.6400    1.1700 oh        1 MOL     -0.609433
     86 H35         4.1900   -2.8910   -0.5100 hn        1 MOL      0.173873
     87 H36         2.6690   -4.8670   -2.1000 h1        1 MOL      0.114914
     88 H37         1.3430   -5.5390    0.0470 h1        1 MOL      0.000926
     89 H38         3.4070   -3.9510    0.8800 ho        1 MOL      0.405138
     90 H39         2.6920   -7.1850   -0.8880 hc        1 MOL      0.100956
     91 H40         4.1020   -6.6620    0.1270 hc        1 MOL      0.100956
     92 H41         2.6390   -7.1730    0.7980 hc        1 MOL      0.100956
     93 N9          0.4950   -3.5460   -1.8570 n         1 MOL     -0.760117
     94 C29        -0.6950   -2.7350   -1.8700 c3        1 MOL      0.151924
     95 C30        -1.7450   -3.3550   -0.9670 c         1 MOL      0.454824
     96 O16        -2.1940   -4.4370   -1.3000 o         1 MOL     -0.536931
     97 C31        -1.1130   -2.5220   -3.3050 c3        1 MOL      0.246580
     98 C32         0.0420   -1.7800   -4.0510 c3        1 MOL     -0.046379
     99 C33        -2.4450   -1.6810   -3.3320 c3        1 MOL     -0.324980
    100 C34        -0.2620   -1.7700   -5.5230 c3        1 MOL     -0.186020
    101 H42         0.2420   -4.5210   -1.9570 hn        1 MOL      0.321850
    102 H43        -0.4300   -1.7400   -1.5210 h1        1 MOL      0.052645
    103 H44        -1.3190   -3.5120   -3.7160 hc        1 MOL     -0.004536
    104 H45         0.9760   -2.3220   -3.9200 hc        1 MOL      0.060325
    105 H46         0.1770   -0.7660   -3.6680 hc        1 MOL      0.060325
    106 H47        -2.3780   -0.7210   -2.8260 hc        1 MOL      0.056452
    107 H48        -2.6970   -1.5760   -4.3900 hc        1 MOL      0.056452
    108 H49        -3.2360   -2.2640   -2.8610 hc        1 MOL      0.056452
    109 H50        -0.3370   -2.8080   -5.8500 hc        1 MOL      0.040959
    110 H51        -1.2050   -1.3870   -5.9170 hc        1 MOL      0.040959
    111 H52         0.5160   -1.2410   -6.0680 hc        1 MOL      0.040959
    112 N10        -2.1610   -2.6820    0.1220 n         1 MOL     -0.156636
    113 C35        -3.3170   -3.0600    1.0220 c3        1 MOL     -0.183596
    114 C36        -4.6330   -2.8480    0.1880 c         1 MOL      0.530625
    115 O17        -4.5880   -1.9670   -0.7120 o         1 MOL     -0.456710
    116 C37        -3.4550   -2.4040    2.3400 c3        1 MOL      0.223541
    117 C38        -2.2140   -2.3510    3.2540 c3        1 MOL     -0.407269
    118 O18        -3.7190   -1.0430    2.1720 oh        1 MOL     -0.496182
    119 H53        -1.6660   -1.8230    0.3400 hn        1 MOL      0.110969
    120 H54        -3.2730   -4.1400    1.1650 h1        1 MOL      0.097814
    121 H55        -4.3340   -2.8660    2.7980 h1        1 MOL      0.076864
    122 H56        -2.9010   -0.7520    1.7750 ho        1 MOL      0.352521
    123 H57        -1.5880   -3.2460    3.2540 hc        1 MOL      0.122542
    124 H58        -1.5380   -1.5930    2.8570 hc        1 MOL      0.122542
    125 H59        -2.6180   -2.2290    4.2580 hc        1 MOL      0.122542
    126 N11        -5.7480   -3.4140    0.5230 n         1 MOL     -0.369872
    127 C39        -7.0020   -3.1430   -0.2460 c3        1 MOL      0.079338
    128 C40        -7.5370   -1.7120    0.0850 c         1 MOL      0.412211
    129 O19        -8.3320   -1.1960   -0.7150 o         1 MOL     -0.501205
    130 C41        -8.1480   -4.1670    0.1100 c3        1 MOL      0.379311
    131 C42        -9.2120   -4.3720   -0.9320 c3        1 MOL     -0.352122
    132 O20        -7.6140   -5.5170    0.1720 oh        1 MOL     -0.648201
    133 H60        -5.8480   -3.8730    1.4160 hn        1 MOL      0.241316
    134 H61        -6.7810   -3.0820   -1.3130 h1        1 MOL      0.112324
    135 H62        -8.6130   -3.9730    1.0730 h1        1 MOL     -0.009724
    136 H63        -8.3840   -6.0870    0.2820 ho        1 MOL      0.392324
    137 H64        -9.9510   -5.1140   -0.6200 hc        1 MOL      0.091802
    138 H65        -9.7610   -3.4370   -0.9500 hc        1 MOL      0.091802
    139 H66        -8.9110   -4.7130   -1.9250 hc        1 MOL      0.091802
    140 N12        -7.0890   -0.9350    1.0760 n         1 MOL     -0.466809
    141 C43        -7.2850    0.5520    1.2230 c3        1 MOL      0.176507
    142 C44        -6.4240    1.3900    0.2770 c         1 MOL      0.283729
    143 O21        -6.9330    2.2580   -0.4280 o         1 MOL     -0.499466
    144 C45        -6.9530    0.9760    2.6050 c3        1 MOL     -0.118050
    145 C46        -7.0730    2.4650    2.9930 c3        1 MOL      0.061621
    146 C47        -7.1880    2.6310    4.4550 c3        1 MOL      0.027299
    147 C48        -7.5480    4.0360    4.9490 c3        1 MOL      0.089818
    148 N13        -7.4600    4.1350    6.4090 n4        1 MOL     -0.374502
    149 H67        -6.4170   -1.3680    1.6890 hn        1 MOL      0.245040
    150 H68        -8.3310    0.8200    1.0780 h1        1 MOL      0.085563
    151 H69        -5.9730    0.6260    2.9350 hc        1 MOL      0.031890
    152 H70        -7.6100    0.4310    3.2880 hc        1 MOL      0.031890
    153 H71        -7.8740    2.9650    2.4550 hc        1 MOL      0.018402
    154 H72        -6.1270    2.9500    2.7310 hc        1 MOL      0.018402
    155 H73        -6.2230    2.4320    4.9250 hc        1 MOL      0.007206
    156 H74        -7.9050    1.9210    4.8840 hc        1 MOL      0.007206
    157 H75        -8.5240    4.1300    4.4710 hx        1 MOL      0.065902
    158 H76        -6.9510    4.8460    4.5420 hx        1 MOL      0.065902
    159 H77        -7.5690    5.0320    6.8500 hn        1 MOL      0.312741
    160 H78        -8.1170    3.5960    6.9530 hn        1 MOL      0.312741
    161 H79        -6.5200    3.9120    6.6920 hn        1 MOL      0.312741
    162 N14        -5.0870    1.1130    0.1560 n         1 MOL     -0.034604
    163 C49        -4.1870    1.6890   -0.8640 c3        1 MOL     -0.181574
    164 C50        -4.6960    1.7570   -2.3380 c         1 MOL      0.424252
    165 O22        -4.4740    2.7300   -3.1150 o         1 MOL     -0.574722
    166 C51        -2.8250    1.0960   -0.6610 c3        1 MOL     -0.038886
    167 C52        -1.9920    1.6150    0.5870 c3        1 MOL      0.043978
    168 C53        -0.5940    0.9870    0.6070 c         1 MOL      0.568560
    169 O23         0.4960    1.6030    0.6420 o         1 MOL     -0.642284
    170 O24        -0.5600   -0.2470    0.7260 o         1 MOL     -0.642284
    171 H80        -4.7110    0.3700    0.7310 hn        1 MOL      0.042003
    172 H81        -4.0480    2.7060   -0.4890 h1        1 MOL      0.082651
    173 H82        -2.2130    1.2930   -1.5390 hc        1 MOL      0.078978
    174 H83        -2.8010    0.0050   -0.7090 hc        1 MOL      0.078978
    175 H84        -2.5360    1.3670    1.5050 hc        1 MOL     -0.009100
    176 H85        -1.9080    2.6940    0.5200 hc        1 MOL     -0.009100
    177 N15        -5.3730    0.7370   -2.6950 n         1 MOL      0.079387
    178 C54        -6.0220    0.5370   -3.9590 c3        1 MOL     -0.310422
    179 H86        -6.7210    1.3530   -4.1410 h1        1 MOL      0.112192
    180 H87        -5.2750    0.5150   -4.7520 h1        1 MOL      0.112192
    181 H88        -6.5650   -0.4080   -3.9450 h1        1 MOL      0.112192
    182 H89        -5.3670    0.0280   -1.9780 hn        1 MOL      0.129219
    183 Ca1         1.9790   -0.6230    1.2550 Ca        1 MOL      1.733968
    184 O25         0.6720   -0.1380    3.6590 oh        1 MOL     -0.850718
    185 H90         0.0630   -0.0870    4.4030 ho        1 MOL      0.391790
    186 H91         1.4800    0.2520    3.9880 ho        1 MOL      0.391790
    187 O26         1.1500   -2.9870    2.3560 oh        1 MOL     -0.850718
    188 H92         1.4710   -3.8690    2.1940 ho        1 MOL      0.391790
    189 H93         1.3760   -2.8110    3.2650 ho        1 MOL      0.391790
@<TRIPOS>BOND
     1    1    2 1   
     2    1    4 1   
     3    1    5 1   
     4    1    6 1   
     5    2    3 2   
     6    2    7 1   
     7    7    8 1   
     8    7   15 1   
     9    8    9 1   
    10    8   11 1   
    11    8   16 1   
    12    9   10 2   
    13    9   19 1   
    14   11   12 1   
    15   11   17 1   
    16   11   18 1   
    17   12   13 1   
    18   12   14 1   
    19   19   20 1   
    20   19   28 1   
    21   20   21 1   
    22   20   23 1   
    23   20   29 1   
    24   21   22 2   
    25   21   41 1   
    26   23   24 1   
    27   23   30 1   
    28   23   31 1   
    29   24   25 1   
    30   24   32 1   
    31   24   33 1   
    32   25   26 1   
    33   25   34 1   
    34   25   35 1   
    35   26   27 1   
    36   26   36 1   
    37   26   37 1   
    38   27   38 1   
    39   27   39 1   
    40   27   40 1   
    41   41   42 1   
    42   41   49 1   
    43   42   43 1   
    44   42   45 1   
    45   42   50 1   
    46   43   44 2   
    47   43   53 1   
    48   45   46 1   
    49   45   51 1   
    50   45   52 1   
    51   46   47 1   
    52   46   48 1   
    53   53   54 1   
    54   53   57 1   
    55   54   55 1   
    56   54   58 1   
    57   54   59 1   
    58   55   56 2   
    59   55   60 1   
    60   60   61 1   
    61   60   68 1   
    62   61   62 1   
    63   61   64 1   
    64   61   69 1   
    65   62   63 2   
    66   62   72 1   
    67   64   65 1   
    68   64   70 1   
    69   64   71 1   
    70   65   66 1   
    71   65   67 1   
    72   72   73 1   
    73   72   76 1   
    74   73   74 1   
    75   73   77 1   
    76   73   78 1   
    77   74   75 2   
    78   74   79 1   
    79   79   80 1   
    80   79   86 1   
    81   80   81 1   
    82   80   83 1   
    83   80   87 1   
    84   81   82 2   
    85   81   93 1   
    86   83   84 1   
    87   83   85 1   
    88   83   88 1   
    89   84   90 1   
    90   84   91 1   
    91   84   92 1   
    92   85   89 1   
    93   93   94 1   
    94   93  101 1   
    95   94   95 1   
    96   94   97 1   
    97   94  102 1   
    98   95   96 2   
    99   95  112 1   
   100   97   98 1   
   101   97   99 1   
   102   97  103 1   
   103   98  100 1   
   104   98  104 1   
   105   98  105 1   
   106   99  106 1   
   107   99  107 1   
   108   99  108 1   
   109  100  109 1   
   110  100  110 1   
   111  100  111 1   
   112  112  113 1   
   113  112  119 1   
   114  113  114 1   
   115  113  116 1   
   116  113  120 1   
   117  114  115 2   
   118  114  126 1   
   119  116  117 1   
   120  116  118 1   
   121  116  121 1   
   122  117  123 1   
   123  117  124 1   
   124  117  125 1   
   125  118  122 1   
   126  126  127 1   
   127  126  133 1   
   128  127  128 1   
   129  127  130 1   
   130  127  134 1   
   131  128  129 2   
   132  128  140 1   
   133  130  131 1   
   134  130  132 1   
   135  130  135 1   
   136  131  137 1   
   137  131  138 1   
   138  131  139 1   
   139  132  136 1   
   140  140  141 1   
   141  140  149 1   
   142  141  142 1   
   143  141  144 1   
   144  141  150 1   
   145  142  143 2   
   146  142  162 1   
   147  144  145 1   
   148  144  151 1   
   149  144  152 1   
   150  145  146 1   
   151  145  153 1   
   152  145  154 1   
   153  146  147 1   
   154  146  155 1   
   155  146  156 1   
   156  147  148 1   
   157  147  157 1   
   158  147  158 1   
   159  148  159 1   
   160  148  160 1   
   161  148  161 1   
   162  162  163 1   
   163  162  171 1   
   164  163  164 1   
   165  163  166 1   
   166  163  172 1   
   167  164  165 2   
   168  164  177 1   
   169  166  167 1   
   170  166  173 1   
   171  166  174 1   
   172  167  168 1   
   173  167  175 1   
   174  167  176 1   
   175  168  169 1   
   176  168  170 1   
   177  177  178 1   
   178  177  182 1   
   179  178  179 1   
   180  178  180 1   
   181  178  181 1   
   182  184  185 1   
   183  184  186 1   
   184  187  188 1   
   185  187  189 1   
@<TRIPOS>SUBSTRUCTURE
     1 MOL         1 TEMP              0 ****  ****    0 ROOT
