@<TRIPOS>MOLECULE
MOL
  186   183     1     0     0
SMALL
resp


@<TRIPOS>ATOM
      1 C1          1.4290   -1.4080    6.6770 c3        1 MOL     -0.306671
      2 C2          1.4550   -1.4610    5.1240 c         1 MOL      0.731541
      3 O1          0.4550   -1.8870    4.5700 o         1 MOL     -0.584464
      4 H1          2.1060   -2.1630    7.0760 hc        1 MOL      0.068436
      5 H2          1.7480   -0.4220    7.0130 hc        1 MOL      0.068436
      6 H3          0.4170   -1.6040    7.0310 hc        1 MOL      0.068436
      7 N1          2.5310   -1.1480    4.4080 n         1 MOL     -0.605801
      8 C3          2.7600   -1.3500    2.9710 c3        1 MOL      0.224286
      9 C4          3.1600   -2.7380    2.6220 c         1 MOL      0.575930
     10 O2          4.1050   -3.3420    3.1730 o         1 MOL     -0.587366
     11 C5          3.8560   -0.3130    2.6360 c3        1 MOL     -0.462653
     12 C6          4.5490   -0.4380    1.3070 c         1 MOL      0.913307
     13 O3          5.6950    0.0760    1.0870 o         1 MOL     -0.699137
     14 O4          3.8820   -1.0400    0.4370 o         1 MOL     -0.699137
     15 H4          3.3660   -1.0560    4.9750 hn        1 MOL      0.297402
     16 H5          1.8620   -1.0260    2.4520 h1        1 MOL      0.080300
     17 H6          4.6650   -0.3790    3.3620 hc        1 MOL      0.085881
     18 H7          3.4280    0.6920    2.6350 hc        1 MOL      0.085881
     19 N2          2.3020   -3.3500    1.8020 n         1 MOL     -0.441996
     20 C7          2.3830   -4.7910    1.4870 c3        1 MOL      0.011440
     21 C8          3.2920   -5.1560    0.2880 c         1 MOL      0.544632
     22 O5          3.8680   -6.2020    0.3240 o         1 MOL     -0.596684
     23 C9          0.9300   -5.3210    1.3520 c3        1 MOL      0.123540
     24 C10         0.1130   -5.2060    2.7540 c3        1 MOL      0.024781
     25 C11         0.7940   -6.7440    0.8160 c3        1 MOL     -0.453655
     26 C12        -1.3970   -5.4980    2.6360 c3        1 MOL     -0.071047
     27 H8          1.6100   -2.7970    1.3090 hn        1 MOL      0.231245
     28 H9          2.8340   -5.3620    2.2970 h1        1 MOL      0.057535
     29 H10         0.4450   -4.6350    0.6580 hc        1 MOL      0.037014
     30 H11         0.2310   -4.1680    3.0890 hc        1 MOL      0.001749
     31 H12         0.4660   -5.8200    3.5920 hc        1 MOL      0.001749
     32 H13         1.2990   -6.8000   -0.1550 hc        1 MOL      0.114333
     33 H14         1.0350   -7.5260    1.5410 hc        1 MOL      0.114333
     34 H15        -0.2230   -6.9320    0.4680 hc        1 MOL      0.114333
     35 H16        -1.8770   -5.6050    3.6040 hc        1 MOL      0.010452
     36 H17        -1.9100   -4.6750    2.1400 hc        1 MOL      0.010452
     37 H18        -1.6060   -6.4010    2.0450 hc        1 MOL      0.010452
     38 N3          3.4550   -4.2860   -0.7320 n         1 MOL     -0.286834
     39 C13         4.2140   -4.5520   -1.9780 c3        1 MOL     -0.011326
     40 C14         5.5560   -3.7650   -1.9830 c         1 MOL      0.464916
     41 O6          6.2340   -3.7600   -2.9580 o         1 MOL     -0.484510
     42 C15         3.3310   -4.2680   -3.1820 c3        1 MOL     -0.184867
     43 C16         2.5810   -2.8720   -3.2370 c         1 MOL      0.803789
     44 O7          1.9960   -2.6190   -4.3210 o         1 MOL     -0.714304
     45 O8          2.5870   -2.1270   -2.2380 o         1 MOL     -0.714304
     46 H19         3.1070   -3.3550   -0.5680 hn        1 MOL      0.178507
     47 H20         4.5160   -5.6010   -1.9920 h1        1 MOL      0.088896
     48 H21         2.6180   -5.0840   -3.2140 hc        1 MOL      0.038769
     49 H22         3.9730   -4.3200   -4.0690 hc        1 MOL      0.038769
     50 N4          5.9050   -3.0790   -0.8400 n         1 MOL     -0.285017
     51 C17         7.2850   -2.6970   -0.6160 c3        1 MOL     -0.024951
     52 C18         7.9230   -1.4400   -1.2970 c         1 MOL      0.553456
     53 O9          8.9210   -1.5470   -1.9820 o         1 MOL     -0.585269
     54 H23         5.1990   -3.0250   -0.1170 hn        1 MOL      0.236502
     55 H24         7.9810   -3.5370   -0.6920 h1        1 MOL      0.028183
     56 H25         7.3240   -2.3950    0.4290 h1        1 MOL      0.028183
     57 N5          7.2650   -0.2940   -1.1480 n         1 MOL     -0.332328
     58 C19         7.4950    0.8750   -1.9290 c3        1 MOL      0.047841
     59 C20         7.5880    2.2060   -1.1710 c         1 MOL      0.353282
     60 O10         7.9750    3.2640   -1.7260 o         1 MOL     -0.562101
     61 C21         6.3830    1.0020   -2.9640 c3        1 MOL     -0.051298
     62 C22         4.9070    1.0150   -2.4640 c         1 MOL      0.728050
     63 O11         3.9730    0.4850   -3.1220 o         1 MOL     -0.763212
     64 O12         4.6360    1.5530   -1.3980 o         1 MOL     -0.763212
     65 H26         6.5180   -0.2710   -0.4700 hn        1 MOL      0.122874
     66 H27         8.4660    0.8370   -2.4320 h1        1 MOL      0.067301
     67 H28         6.4710    0.1800   -3.6740 hc        1 MOL      0.024374
     68 H29         6.5320    1.8440   -3.6380 hc        1 MOL      0.024374
     69 N6          7.1950    2.2170    0.1040 n         1 MOL     -0.174726
     70 C23         7.1400    3.3780    1.0110 c3        1 MOL     -0.210858
     71 C24         5.8220    4.1600    1.0850 c         1 MOL      0.615056
     72 O13         5.8300    5.1930    1.7590 o         1 MOL     -0.623200
     73 H30         6.9700    1.3130    0.5010 hn        1 MOL      0.221382
     74 H31         7.8930    4.0800    0.6480 h1        1 MOL      0.097813
     75 H32         7.5040    2.9730    1.9530 h1        1 MOL      0.097813
     76 N7          4.7470    3.6910    0.5300 n         1 MOL     -0.459734
     77 C25         3.4070    4.3270    0.7570 c3        1 MOL      0.304240
     78 C26         2.3300    3.2830    1.0030 c         1 MOL      0.451557
     79 O14         2.5520    2.1090    0.7690 o         1 MOL     -0.648743
     80 C27         2.9750    5.2710   -0.3910 c3        1 MOL     -0.001228
     81 C28         3.6410    6.6770   -0.2740 c3        1 MOL     -0.354193
     82 C29         2.9770    7.8130   -0.9530 c         1 MOL      0.640875
     83 N8          2.6840    7.6910   -2.2490 n         1 MOL     -0.754953
     84 O15         2.4320    8.7460   -0.3850 o         1 MOL     -0.554871
     85 H33         4.7730    2.8390   -0.0120 hn        1 MOL      0.357389
     86 H34         3.4410    4.8290    1.7300 h1        1 MOL      0.007238
     87 H35         1.8860    5.2770   -0.4210 hc        1 MOL      0.052855
     88 H36         3.3620    4.8450   -1.3080 hc        1 MOL      0.052855
     89 H37         4.6970    6.7000   -0.5360 hc        1 MOL      0.100532
     90 H38         3.6970    6.8530    0.8010 hc        1 MOL      0.100532
     91 H39         3.0250    6.9010   -2.7850 hn        1 MOL      0.335768
     92 H40         2.3350    8.4730   -2.7840 hn        1 MOL      0.335768
     93 N9          1.1330    3.6860    1.5740 n         1 MOL     -0.372125
     94 C30        -0.0790    2.8570    1.7200 c3        1 MOL      0.285601
     95 C31        -1.1790    3.3730    0.7500 c         1 MOL      0.227426
     96 O16        -1.4700    4.5710    0.7540 o         1 MOL     -0.545198
     97 C32        -0.6260    3.0290    3.1680 c3        1 MOL      0.174002
     98 C33        -1.5900    1.8840    3.5130 c3        1 MOL     -0.245875
     99 C34         0.5260    2.9990    4.2640 c3        1 MOL     -0.245875
    100 H41         1.0450    4.6570    1.8340 hn        1 MOL      0.217477
    101 H42         0.1110    1.7980    1.5210 h1        1 MOL      0.069211
    102 H43        -1.2410    3.9100    3.3470 hc        1 MOL     -0.017598
    103 H44        -2.4410    1.6920    2.8580 hc        1 MOL      0.049087
    104 H45        -1.0290    0.9490    3.5440 hc        1 MOL      0.049087
    105 H46        -1.9740    2.0020    4.5220 hc        1 MOL      0.049087
    106 H47         0.0820    2.9860    5.2550 hc        1 MOL      0.049087
    107 H48         1.0320    2.0450    4.0850 hc        1 MOL      0.049087
    108 H49         1.2280    3.8340    4.2160 hc        1 MOL      0.049087
    109 N10        -1.6780    2.5670   -0.2150 n         1 MOL     -0.056823
    110 C35        -2.9150    2.6940   -1.0100 c3        1 MOL      0.263663
    111 C36        -4.2130    2.1790   -0.3840 c         1 MOL      0.274852
    112 O17        -4.0760    1.4830    0.6620 o         1 MOL     -0.294579
    113 C37        -2.7010    2.1040   -2.3740 c3        1 MOL     -0.548653
    114 C38        -3.0820    0.6530   -2.5390 c         1 MOL      0.893645
    115 N11        -2.2110   -0.3200   -2.4980 n         1 MOL     -0.947698
    116 O18        -4.1630    0.3180   -2.8670 o         1 MOL     -0.620081
    117 H50        -1.3280    1.6190   -0.2380 hn        1 MOL     -0.025680
    118 H51        -3.0300    3.7590   -1.2140 h1        1 MOL      0.026125
    119 H52        -1.6370    2.2130   -2.5880 hc        1 MOL      0.147016
    120 H53        -3.2760    2.5950   -3.1520 hc        1 MOL      0.147016
    121 H54        -1.3780   -0.1560   -1.9490 hn        1 MOL      0.446043
    122 H55        -2.4150   -1.2870   -2.7430 hn        1 MOL      0.446043
    123 N12        -5.3210    2.4210   -0.9730 n         1 MOL     -0.491545
    124 C39        -6.6370    2.1460   -0.3820 c3        1 MOL      0.269982
    125 C40        -6.8450    0.6980   -0.0760 c         1 MOL      0.607917
    126 O19        -7.3410    0.3590    1.0070 o         1 MOL     -0.554693
    127 C41        -7.7140    2.7260   -1.3310 c3        1 MOL     -0.190319
    128 C42        -9.1700    2.2870   -1.0420 ca        1 MOL     -0.072833
    129 C43        -9.8470    2.7860    0.1130 ca        1 MOL     -0.048247
    130 C44        -9.8410    1.4520   -1.9150 ca        1 MOL     -0.048247
    131 C45       -11.2080    2.5430    0.2650 ca        1 MOL     -0.365294
    132 C46       -11.2050    1.1020   -1.7180 ca        1 MOL     -0.365294
    133 C47       -11.8980    1.6780   -0.6550 ca        1 MOL      0.476053
    134 O20       -13.2290    1.4890   -0.6290 oh        1 MOL     -0.552931
    135 H56        -5.4400    2.8930   -1.8580 hn        1 MOL      0.301951
    136 H57        -6.6730    2.5850    0.6250 h1        1 MOL      0.017979
    137 H58        -7.3970    2.4520   -2.3480 hc        1 MOL      0.065421
    138 H59        -7.5720    3.8060   -1.3010 hc        1 MOL      0.065421
    139 H60        -9.2090    3.3030    0.8240 ha        1 MOL      0.115929
    140 H61        -9.3130    1.0190   -2.7540 ha        1 MOL      0.115929
    141 H62       -11.7430    2.7850    1.1720 ha        1 MOL      0.166430
    142 H63       -11.7120    0.4570   -2.4290 ha        1 MOL      0.166430
    143 H64       -13.5960    1.1010   -1.4260 ho        1 MOL      0.378197
    144 N13        -6.4020   -0.2370   -1.0220 n         1 MOL     -0.443433
    145 C48        -6.5260   -1.7000   -0.8410 c3        1 MOL      0.002036
    146 C49        -5.6600   -2.1370    0.3610 c         1 MOL      0.294177
    147 O21        -5.9210   -3.1100    1.0020 o         1 MOL     -0.489717
    148 C50        -6.2890   -2.3630   -2.2150 c3        1 MOL      0.068499
    149 C51        -6.1000   -3.8850   -2.1990 c3        1 MOL     -0.233883
    150 C52        -5.6840   -4.5230   -3.5530 c         1 MOL      0.673577
    151 O22        -6.5000   -4.5540   -4.5170 o         1 MOL     -0.727250
    152 O23        -4.4520   -4.8390   -3.6870 o         1 MOL     -0.727250
    153 H65        -6.0780    0.0930   -1.9200 hn        1 MOL      0.215900
    154 H66        -7.5660   -1.9290   -0.6170 h1        1 MOL      0.087925
    155 H67        -5.3640   -1.8890   -2.5490 hc        1 MOL      0.023580
    156 H68        -7.1130   -2.0310   -2.8460 hc        1 MOL      0.023580
    157 H69        -7.1040   -4.2640   -2.0190 hc        1 MOL      0.025567
    158 H70        -5.4340   -4.2040   -1.3970 hc        1 MOL      0.025567
    159 N14        -4.4630   -1.5390    0.6210 n         1 MOL     -0.101868
    160 C53        -3.6330   -1.8240    1.8680 c3        1 MOL      0.127763
    161 C54        -4.2240   -1.2160    3.1870 c         1 MOL      0.310478
    162 O24        -4.1860   -1.9270    4.2300 o         1 MOL     -0.560342
    163 C55        -2.2750   -1.1400    1.6870 c3        1 MOL      0.099715
    164 C56        -1.4180   -1.8790    0.6570 c3        1 MOL      0.188154
    165 C57        -0.2110   -1.0080    0.1890 c         1 MOL      0.508849
    166 O25         0.9120   -1.5490    0.2470 o         1 MOL     -0.656343
    167 O26        -0.3670    0.1220   -0.4480 o         1 MOL     -0.656343
    168 H71        -4.2380   -0.6940    0.1110 hn        1 MOL      0.107536
    169 H72        -3.5180   -2.8880    2.0960 h1        1 MOL      0.055644
    170 H73        -1.7350   -1.0850    2.6280 hc        1 MOL     -0.031724
    171 H74        -2.4330   -0.1140    1.3290 hc        1 MOL     -0.031724
    172 H75        -2.1260   -2.1330   -0.1250 hc        1 MOL     -0.049715
    173 H76        -1.1280   -2.8350    1.1030 hc        1 MOL     -0.049715
    174 N15        -4.8660   -0.0950    3.0770 n         1 MOL      0.101039
    175 C58        -5.5570    0.6280    4.1980 c3        1 MOL     -0.329919
    176 H77        -5.0610    0.3940    5.1400 h1        1 MOL      0.107875
    177 H78        -5.5110    1.7020    4.0210 h1        1 MOL      0.107875
    178 H79        -6.5980    0.3110    4.2480 h1        1 MOL      0.107875
    179 H80        -4.8980    0.3180    2.1550 hn        1 MOL     -0.004227
    180 Ca1         2.3030    0.1830   -1.0880 Ca        1 MOL      1.748785
    181 O27         0.9300   -0.1260   -3.5090 oh        1 MOL     -0.855511
    182 H81         1.3820   -0.9090   -3.8270 ho        1 MOL      0.397205
    183 H82         0.4620    0.1990   -4.2820 ho        1 MOL      0.397205
    184 O28         1.9750    2.7890   -2.4410 oh        1 MOL     -0.855511
    185 H83         1.4990    3.3520   -3.0430 ho        1 MOL      0.397205
    186 H84         2.8000    2.6030   -2.8990 ho        1 MOL      0.397205
@<TRIPOS>BOND
     1    1    2 1   
     2    1    4 1   
     3    1    5 1   
     4    1    6 1   
     5    2    3 2   
     6    2    7 1   
     7    7    8 1   
     8    7   15 1   
     9    8    9 1   
    10    8   11 1   
    11    8   16 1   
    12    9   10 2   
    13    9   19 1   
    14   11   12 1   
    15   11   17 1   
    16   11   18 1   
    17   12   13 1   
    18   12   14 1   
    19   19   20 1   
    20   19   27 1   
    21   20   21 1   
    22   20   23 1   
    23   20   28 1   
    24   21   22 2   
    25   21   38 1   
    26   23   24 1   
    27   23   25 1   
    28   23   29 1   
    29   24   26 1   
    30   24   30 1   
    31   24   31 1   
    32   25   32 1   
    33   25   33 1   
    34   25   34 1   
    35   26   35 1   
    36   26   36 1   
    37   26   37 1   
    38   38   39 1   
    39   38   46 1   
    40   39   40 1   
    41   39   42 1   
    42   39   47 1   
    43   40   41 2   
    44   40   50 1   
    45   42   43 1   
    46   42   48 1   
    47   42   49 1   
    48   43   44 1   
    49   43   45 1   
    50   50   51 1   
    51   50   54 1   
    52   51   52 1   
    53   51   55 1   
    54   51   56 1   
    55   52   53 2   
    56   52   57 1   
    57   57   58 1   
    58   57   65 1   
    59   58   59 1   
    60   58   61 1   
    61   58   66 1   
    62   59   60 2   
    63   59   69 1   
    64   61   62 1   
    65   61   67 1   
    66   61   68 1   
    67   62   63 1   
    68   62   64 1   
    69   69   70 1   
    70   69   73 1   
    71   70   71 1   
    72   70   74 1   
    73   70   75 1   
    74   71   72 2   
    75   71   76 1   
    76   76   77 1   
    77   76   85 1   
    78   77   78 1   
    79   77   80 1   
    80   77   86 1   
    81   78   79 2   
    82   78   93 1   
    83   80   81 1   
    84   80   87 1   
    85   80   88 1   
    86   81   82 1   
    87   81   89 1   
    88   81   90 1   
    89   82   83 1   
    90   82   84 2   
    91   83   91 1   
    92   83   92 1   
    93   93   94 1   
    94   93  100 1   
    95   94   95 1   
    96   94   97 1   
    97   94  101 1   
    98   95   96 2   
    99   95  109 1   
   100   97   98 1   
   101   97   99 1   
   102   97  102 1   
   103   98  103 1   
   104   98  104 1   
   105   98  105 1   
   106   99  106 1   
   107   99  107 1   
   108   99  108 1   
   109  109  110 1   
   110  109  117 1   
   111  110  111 1   
   112  110  113 1   
   113  110  118 1   
   114  111  112 2   
   115  111  123 1   
   116  113  114 1   
   117  113  119 1   
   118  113  120 1   
   119  114  115 1   
   120  114  116 2   
   121  115  121 1   
   122  115  122 1   
   123  123  124 1   
   124  123  135 1   
   125  124  125 1   
   126  124  127 1   
   127  124  136 1   
   128  125  126 2   
   129  125  144 1   
   130  127  128 1   
   131  127  137 1   
   132  127  138 1   
   133  128  129 ar  
   134  128  130 ar  
   135  129  131 ar  
   136  129  139 1   
   137  130  132 ar  
   138  130  140 1   
   139  131  133 ar  
   140  131  141 1   
   141  132  133 ar  
   142  132  142 1   
   143  133  134 1   
   144  134  143 1   
   145  144  145 1   
   146  144  153 1   
   147  145  146 1   
   148  145  148 1   
   149  145  154 1   
   150  146  147 2   
   151  146  159 1   
   152  148  149 1   
   153  148  155 1   
   154  148  156 1   
   155  149  150 1   
   156  149  157 1   
   157  149  158 1   
   158  150  151 1   
   159  150  152 1   
   160  159  160 1   
   161  159  168 1   
   162  160  161 1   
   163  160  163 1   
   164  160  169 1   
   165  161  162 2   
   166  161  174 1   
   167  163  164 1   
   168  163  170 1   
   169  163  171 1   
   170  164  165 1   
   171  164  172 1   
   172  164  173 1   
   173  165  166 1   
   174  165  167 1   
   175  174  175 1   
   176  174  179 1   
   177  175  176 1   
   178  175  177 1   
   179  175  178 1   
   180  181  182 1   
   181  181  183 1   
   182  184  185 1   
   183  184  186 1   
@<TRIPOS>SUBSTRUCTURE
     1 MOL         1 TEMP              0 ****  ****    0 ROOT
