@<TRIPOS>MOLECULE
MOL
  183   181     1     0     0
SMALL
resp


@<TRIPOS>ATOM
      1 C1         -1.1400    2.1080    6.1570 c3        1 MOL     -0.326325
      2 C2         -1.3210    1.9640    4.6200 c         1 MOL      0.730480
      3 O1         -0.3860    2.1870    3.8170 o         1 MOL     -0.606874
      4 H1         -0.9240    1.1310    6.5900 hc        1 MOL      0.078299
      5 H2         -0.3140    2.7870    6.3630 hc        1 MOL      0.078299
      6 H3         -2.0560    2.5040    6.5960 hc        1 MOL      0.078299
      7 N1         -2.5140    1.5320    4.1990 n         1 MOL     -0.670435
      8 C3         -2.9140    1.3930    2.7660 c3        1 MOL      0.536351
      9 C4         -3.5710    2.7370    2.2460 c         1 MOL      0.332739
     10 O2         -4.6170    3.2370    2.7420 o         1 MOL     -0.584694
     11 C5         -4.0250    0.3600    2.6130 c3        1 MOL     -0.355698
     12 C6         -4.5870    0.2310    1.1680 c         1 MOL      0.649025
     13 O3         -5.6900   -0.3600    1.0820 o         1 MOL     -0.556278
     14 O4         -3.9720    0.7450    0.1970 o         1 MOL     -0.556278
     15 H4         -3.2700    1.5180    4.8770 hn        1 MOL      0.303290
     16 H5         -2.0550    1.0680    2.1870 h1        1 MOL     -0.024784
     17 H6         -4.8050    0.6710    3.3050 hc        1 MOL      0.053108
     18 H7         -3.7360   -0.6060    3.0200 hc        1 MOL      0.053108
     19 N2         -2.9560    3.2950    1.2190 n         1 MOL     -0.094510
     20 C7         -3.3420    4.6270    0.7300 c3        1 MOL     -0.045336
     21 C8         -4.3480    4.5110   -0.4340 c         1 MOL      0.389645
     22 O5         -4.9170    5.5640   -0.7580 o         1 MOL     -0.572753
     23 C9         -2.0950    5.4290    0.2030 c3        1 MOL      0.269431
     24 C10        -0.8430    5.2260    1.0450 c3        1 MOL      0.040478
     25 C11        -2.1850    6.9640    0.0320 c3        1 MOL     -0.229599
     26 C12        -0.8960    5.7380    2.5120 c3        1 MOL     -0.441036
     27 H8         -2.2950    2.7700    0.6600 hn        1 MOL      0.141682
     28 H9         -3.8200    5.2580    1.4930 h1        1 MOL      0.089098
     29 H10        -1.8110    5.0470   -0.7770 hc        1 MOL     -0.032945
     30 H11         0.0050    5.6700    0.5240 hc        1 MOL      0.029234
     31 H12        -0.5680    4.1620    1.0830 hc        1 MOL      0.029234
     32 H13        -2.8290    7.1730   -0.8230 hc        1 MOL      0.035238
     33 H14        -2.6290    7.3420    0.9450 hc        1 MOL      0.035238
     34 H15        -1.2820    7.5340   -0.1780 hc        1 MOL      0.035238
     35 H16        -0.9530    6.8210    2.5960 hc        1 MOL      0.095039
     36 H17        -1.6410    5.1020    2.9960 hc        1 MOL      0.095039
     37 H18         0.1280    5.6210    2.8790 hc        1 MOL      0.095039
     38 N3         -4.6380    3.3330   -0.9590 n         1 MOL     -0.066570
     39 C13        -5.5910    3.2150   -2.0810 c3        1 MOL     -0.051431
     40 C14        -6.9470    2.8380   -1.6020 c         1 MOL      0.529174
     41 O6         -7.9170    3.3030   -2.1750 o         1 MOL     -0.544712
     42 C15        -5.1520    2.1750   -3.0600 c3        1 MOL      0.134431
     43 C16        -3.6920    2.2510   -3.3220 c         1 MOL      0.541733
     44 O7         -2.8930    1.4560   -2.7190 o         1 MOL     -0.673340
     45 O8         -3.2300    3.0540   -4.1960 o         1 MOL     -0.673340
     46 H19        -4.1660    2.5010   -0.6270 hn        1 MOL     -0.001192
     47 H20        -5.7050    4.1970   -2.5400 h1        1 MOL      0.070706
     48 H21        -5.6970    2.3600   -3.9830 hc        1 MOL     -0.028257
     49 H22        -5.4520    1.1810   -2.7200 hc        1 MOL     -0.028257
     50 N4         -7.0100    2.0530   -0.5020 n         1 MOL     -0.371343
     51 C17        -8.1850    1.1920   -0.2790 c3        1 MOL     -0.061827
     52 C18        -8.2060   -0.0400   -1.2590 c         1 MOL      0.411482
     53 O9         -9.1770   -0.1960   -1.9690 o         1 MOL     -0.576070
     54 H23        -6.0990    1.8010   -0.1410 hn        1 MOL      0.197343
     55 H24        -9.0330    1.8550   -0.4400 h1        1 MOL      0.071758
     56 H25        -8.2010    0.7800    0.7340 h1        1 MOL      0.071758
     57 N5         -7.2160   -0.8640   -1.3220 n         1 MOL     -0.185302
     58 C19        -7.1920   -2.0790   -2.0470 c3        1 MOL     -0.000829
     59 C20        -7.2180   -3.1870   -1.0630 c         1 MOL      0.360147
     60 O10        -7.3080   -4.3300   -1.4820 o         1 MOL     -0.562307
     61 C21        -5.9080   -2.2410   -2.8740 c3        1 MOL      0.203799
     62 C22        -4.5390   -1.8470   -2.2660 c         1 MOL      0.360759
     63 O11        -3.6160   -1.5230   -3.0460 o         1 MOL     -0.653612
     64 O12        -4.4010   -1.8210   -1.0090 o         1 MOL     -0.653612
     65 H26        -6.3640   -0.6150   -0.8370 hn        1 MOL      0.259388
     66 H27        -8.0410   -2.2420   -2.7030 h1        1 MOL      0.080368
     67 H28        -6.0320   -1.5100   -3.6750 hc        1 MOL     -0.031722
     68 H29        -6.0730   -3.1660   -3.4360 hc        1 MOL     -0.031722
     69 N6         -6.9340   -2.9630    0.2220 n         1 MOL     -0.059247
     70 C23        -6.9070   -3.8320    1.3590 c3        1 MOL     -0.141067
     71 C24        -5.5200   -4.4350    1.5730 c         1 MOL      0.578963
     72 O13        -5.4690   -5.5790    1.9460 o         1 MOL     -0.578916
     73 H30        -6.6280   -2.0160    0.4220 hn        1 MOL      0.050990
     74 H31        -7.7500   -4.5210    1.2850 h1        1 MOL      0.058427
     75 H32        -7.1460   -3.1170    2.1340 h1        1 MOL      0.058427
     76 N7         -4.4580   -3.7250    1.1680 n         1 MOL     -0.176009
     77 C25        -3.0650   -4.1290    1.5260 c3        1 MOL     -0.243860
     78 C26        -2.0260   -3.0230    1.5680 c         1 MOL      0.768961
     79 O14        -2.2570   -1.8810    1.2190 o         1 MOL     -0.713059
     80 C27        -2.6170   -5.1380    0.4960 c3        1 MOL      0.026456
     81 C28        -2.7720   -4.9320   -1.0740 c3        1 MOL     -0.070285
     82 C29        -1.6980   -4.0020   -1.6390 c         1 MOL      0.518239
     83 N8         -1.2340   -4.2880   -2.8110 n         1 MOL     -0.779053
     84 O15        -1.2570   -3.0280   -1.0920 o         1 MOL     -0.419776
     85 H33        -4.6470   -2.8720    0.6650 hn        1 MOL      0.172598
     86 H34        -3.0820   -4.5980    2.5170 h1        1 MOL      0.083295
     87 H35        -3.1460   -6.0740    0.6980 hc        1 MOL      0.013842
     88 H36        -1.5850   -5.4250    0.6920 hc        1 MOL      0.013842
     89 H37        -3.7730   -4.6060   -1.3710 hc        1 MOL      0.038980
     90 H38        -2.6130   -5.8860   -1.5580 hc        1 MOL      0.038980
     91 H39        -1.8540   -4.9830   -3.1900 hn        1 MOL      0.370583
     92 H40        -0.7600   -3.5710   -3.3440 hn        1 MOL      0.370583
     93 N9         -0.8820   -3.4040    2.0700 n         1 MOL     -0.446502
     94 C30         0.3070   -2.4910    2.0480 c3        1 MOL     -0.018111
     95 C31         1.4150   -3.0870    1.2100 c         1 MOL      0.366374
     96 O16         1.9110   -4.1670    1.5980 o         1 MOL     -0.579315
     97 C32         0.7780   -2.2980    3.5140 c3        1 MOL      0.314006
     98 C33         1.5680   -1.0090    3.7020 c3        1 MOL     -0.295633
     99 C34        -0.3300   -2.2470    4.5560 c3        1 MOL     -0.295633
    100 H41        -0.7320   -4.4080    2.1450 hn        1 MOL      0.283726
    101 H42         0.0000   -1.5450    1.5900 h1        1 MOL      0.124614
    102 H43         1.4090   -3.0740    3.9450 hc        1 MOL     -0.036318
    103 H44         2.4200   -0.8970    3.0290 hc        1 MOL      0.058093
    104 H45         0.9140   -0.1440    3.5800 hc        1 MOL      0.058093
    105 H46         1.9100   -0.9820    4.7380 hc        1 MOL      0.058093
    106 H47        -0.0430   -1.9680    5.5790 hc        1 MOL      0.058093
    107 H48        -1.0920   -1.5660    4.1860 hc        1 MOL      0.058093
    108 H49        -0.7450   -3.2510    4.5850 hc        1 MOL      0.058093
    109 N10         1.7740   -2.4360    0.1560 n         1 MOL     -0.088490
    110 C35         2.9610   -2.8470   -0.6740 c3        1 MOL      0.050708
    111 C36         4.2080   -2.1730   -0.1090 c         1 MOL      0.330320
    112 O17         4.0310   -1.4390    0.8410 o         1 MOL     -0.242237
    113 C37         2.7470   -2.5160   -2.1560 c3        1 MOL     -0.398994
    114 C38         3.2180   -1.1900   -2.5730 c         1 MOL      0.563085
    115 N11         2.7110   -0.1170   -2.1290 n         1 MOL     -0.587221
    116 O18         4.1680   -1.1150   -3.3550 o         1 MOL     -0.582429
    117 H50         1.2880   -1.6060   -0.1570 hn        1 MOL     -0.003262
    118 H51         3.0430   -3.9260   -0.5500 h1        1 MOL      0.071211
    119 H52         1.6680   -2.5440   -2.3260 hc        1 MOL      0.146676
    120 H53         3.2150   -3.1910   -2.8640 hc        1 MOL      0.146676
    121 H54         1.8200   -0.2590   -1.6820 hn        1 MOL      0.355932
    122 H55         2.9390    0.7560   -2.5670 hn        1 MOL      0.355932
    123 N12         5.3880   -2.5180   -0.6050 n         1 MOL     -0.365020
    124 C39         6.6790   -2.0440   -0.0820 c3        1 MOL      0.059448
    125 C40         6.8400   -0.5070   -0.0510 c         1 MOL      0.681376
    126 O19         7.3400    0.1440    0.8810 o         1 MOL     -0.524174
    127 C41         7.7790   -2.6890   -0.9620 c3        1 MOL     -0.142054
    128 C42         9.1750   -2.2100   -0.6400 ca        1 MOL      0.072724
    129 C43         9.6150   -2.4930    0.6890 ca        1 MOL     -0.278638
    130 C44         9.8030   -1.2380   -1.4280 ca        1 MOL     -0.278638
    131 C45        10.7730   -1.7880    1.2320 ca        1 MOL     -0.182530
    132 C46        10.9510   -0.5750   -0.8770 ca        1 MOL     -0.182530
    133 C47        11.5000   -0.9750    0.3660 ca        1 MOL      0.324625
    134 O20        12.6980   -0.4000    0.7210 oh        1 MOL     -0.567510
    135 H56         5.4130   -3.1000   -1.4220 hn        1 MOL      0.257548
    136 H57         6.8510   -2.3800    0.9410 h1        1 MOL      0.039935
    137 H58         7.6080   -2.5350   -2.0340 hc        1 MOL      0.064022
    138 H59         7.7100   -3.7670   -0.8070 hc        1 MOL      0.064022
    139 H60         9.0750   -3.2390    1.2510 ha        1 MOL      0.170655
    140 H61         9.2750   -0.8700   -2.2970 ha        1 MOL      0.170655
    141 H62        11.1860   -1.9050    2.2180 ha        1 MOL      0.143115
    142 H63        11.3940    0.2810   -1.3560 ha        1 MOL      0.143115
    143 H64        13.0240    0.2140    0.0520 ho        1 MOL      0.401108
    144 N13         6.3340    0.0990   -1.1270 n         1 MOL     -0.150357
    145 C48         6.3640    1.5410   -1.2600 c3        1 MOL     -0.185715
    146 C49         5.4570    2.3360   -0.2310 c         1 MOL      0.400726
    147 O21         5.6090    3.5400   -0.1060 o         1 MOL     -0.510403
    148 C50         5.8100    1.9500   -2.6640 c3        1 MOL      0.449203
    149 C51         6.7200    1.5120   -3.8090 c3        1 MOL     -0.151166
    150 C52         7.8940    2.4400   -4.2740 c         1 MOL      0.686010
    151 O22         7.9890    2.7930   -5.4860 o         1 MOL     -0.731994
    152 O23         8.5680    2.9960   -3.4030 o         1 MOL     -0.731994
    153 H65         5.8850   -0.4200   -1.8640 hn        1 MOL      0.144748
    154 H66         7.3350    2.0250   -1.1920 h1        1 MOL      0.102159
    155 H67         5.5950    3.0090   -2.6940 hc        1 MOL     -0.088111
    156 H68         4.8540    1.4300   -2.7870 hc        1 MOL     -0.088111
    157 H69         6.0790    1.4170   -4.6810 hc        1 MOL     -0.038692
    158 H70         7.2210    0.5580   -3.6630 hc        1 MOL     -0.038692
    159 N14         4.5950    1.6420    0.5630 n         1 MOL      0.017727
    160 C53         3.6820    2.2330    1.5400 c3        1 MOL     -0.128104
    161 C54         4.3200    1.9560    2.9440 c         1 MOL      0.422880
    162 O24         4.1140    2.6470    3.8990 o         1 MOL     -0.560248
    163 C55         2.3700    1.5560    1.4930 c3        1 MOL      0.412304
    164 C56         1.5310    2.1370    0.3050 c3        1 MOL     -0.023146
    165 C57         0.3050    1.2190    0.0340 c         1 MOL      0.692664
    166 O25        -0.8020    1.7410    0.2010 o         1 MOL     -0.695626
    167 O26         0.4310    0.0180   -0.4150 o         1 MOL     -0.695626
    168 H71         4.5660    0.6340    0.5670 hn        1 MOL     -0.370885
    169 H72         3.5810    3.2990    1.3690 h1        1 MOL      0.102289
    170 H73         1.8590    1.7660    2.4330 hc        1 MOL     -0.038357
    171 H74         2.4910    0.4790    1.4000 hc        1 MOL     -0.038357
    172 H75         2.1650    2.0730   -0.5850 hc        1 MOL     -0.053553
    173 H76         1.1800    3.1400    0.5340 hc        1 MOL     -0.053553
    174 N15         5.2650    0.9900    3.0350 n         1 MOL      0.019381
    175 C58         6.0690    0.5710    4.1500 c3        1 MOL     -0.313044
    176 H77         5.7300   -0.4050    4.4950 h1        1 MOL      0.099257
    177 H78         7.1130    0.5040    3.8410 h1        1 MOL      0.099257
    178 H79         5.9750    1.2960    4.9590 h1        1 MOL      0.099257
    179 H80         5.4400    0.5310    2.1550 hn        1 MOL      0.077297
    180 Ca1        -2.1720   -0.4230   -1.0440 Ca        1 MOL      1.686081
    181 O27        -0.5550   -0.2420   -3.2330 oh        1 MOL     -0.841884
    182 H81        -0.6610   -0.7480   -4.0410 ho        1 MOL      0.403536
    183 H82        -0.6200    0.6680   -3.5260 ho        1 MOL      0.403536
@<TRIPOS>BOND
     1    1    2 1   
     2    1    4 1   
     3    1    5 1   
     4    1    6 1   
     5    2    3 2   
     6    2    7 1   
     7    7    8 1   
     8    7   15 1   
     9    8    9 1   
    10    8   11 1   
    11    8   16 1   
    12    9   10 2   
    13    9   19 1   
    14   11   12 1   
    15   11   17 1   
    16   11   18 1   
    17   12   13 1   
    18   12   14 1   
    19   19   20 1   
    20   19   27 1   
    21   20   21 1   
    22   20   23 1   
    23   20   28 1   
    24   21   22 2   
    25   21   38 1   
    26   23   24 1   
    27   23   25 1   
    28   23   29 1   
    29   24   26 1   
    30   24   30 1   
    31   24   31 1   
    32   25   32 1   
    33   25   33 1   
    34   25   34 1   
    35   26   35 1   
    36   26   36 1   
    37   26   37 1   
    38   38   39 1   
    39   38   46 1   
    40   39   40 1   
    41   39   42 1   
    42   39   47 1   
    43   40   41 2   
    44   40   50 1   
    45   42   43 1   
    46   42   48 1   
    47   42   49 1   
    48   43   44 1   
    49   43   45 1   
    50   50   51 1   
    51   50   54 1   
    52   51   52 1   
    53   51   55 1   
    54   51   56 1   
    55   52   53 2   
    56   52   57 1   
    57   57   58 1   
    58   57   65 1   
    59   58   59 1   
    60   58   61 1   
    61   58   66 1   
    62   59   60 2   
    63   59   69 1   
    64   61   62 1   
    65   61   67 1   
    66   61   68 1   
    67   62   63 1   
    68   62   64 1   
    69   69   70 1   
    70   69   73 1   
    71   70   71 1   
    72   70   74 1   
    73   70   75 1   
    74   71   72 2   
    75   71   76 1   
    76   76   77 1   
    77   76   85 1   
    78   77   78 1   
    79   77   80 1   
    80   77   86 1   
    81   78   79 2   
    82   78   93 1   
    83   80   81 1   
    84   80   87 1   
    85   80   88 1   
    86   81   82 1   
    87   81   89 1   
    88   81   90 1   
    89   82   83 1   
    90   82   84 2   
    91   83   91 1   
    92   83   92 1   
    93   93   94 1   
    94   93  100 1   
    95   94   95 1   
    96   94   97 1   
    97   94  101 1   
    98   95   96 2   
    99   95  109 1   
   100   97   98 1   
   101   97   99 1   
   102   97  102 1   
   103   98  103 1   
   104   98  104 1   
   105   98  105 1   
   106   99  106 1   
   107   99  107 1   
   108   99  108 1   
   109  109  110 1   
   110  109  117 1   
   111  110  111 1   
   112  110  113 1   
   113  110  118 1   
   114  111  112 2   
   115  111  123 1   
   116  113  114 1   
   117  113  119 1   
   118  113  120 1   
   119  114  115 1   
   120  114  116 2   
   121  115  121 1   
   122  115  122 1   
   123  123  124 1   
   124  123  135 1   
   125  124  125 1   
   126  124  127 1   
   127  124  136 1   
   128  125  126 2   
   129  125  144 1   
   130  127  128 1   
   131  127  137 1   
   132  127  138 1   
   133  128  129 ar  
   134  128  130 ar  
   135  129  131 ar  
   136  129  139 1   
   137  130  132 ar  
   138  130  140 1   
   139  131  133 ar  
   140  131  141 1   
   141  132  133 ar  
   142  132  142 1   
   143  133  134 1   
   144  134  143 1   
   145  144  145 1   
   146  144  153 1   
   147  145  146 1   
   148  145  148 1   
   149  145  154 1   
   150  146  147 2   
   151  146  159 1   
   152  148  149 1   
   153  148  155 1   
   154  148  156 1   
   155  149  150 1   
   156  149  157 1   
   157  149  158 1   
   158  150  151 1   
   159  150  152 1   
   160  159  160 1   
   161  159  168 1   
   162  160  161 1   
   163  160  163 1   
   164  160  169 1   
   165  161  162 2   
   166  161  174 1   
   167  163  164 1   
   168  163  170 1   
   169  163  171 1   
   170  164  165 1   
   171  164  172 1   
   172  164  173 1   
   173  165  166 1   
   174  165  167 1   
   175  174  175 1   
   176  174  179 1   
   177  175  176 1   
   178  175  177 1   
   179  175  178 1   
   180  181  182 1   
   181  181  183 1   
@<TRIPOS>SUBSTRUCTURE
     1 MOL         1 TEMP              0 ****  ****    0 ROOT
