@<TRIPOS>MOLECULE
MOL
  189   185     1     0     0
SMALL
resp


@<TRIPOS>ATOM
      1 C1         -0.2070    4.4980    5.9440 c3        1 MOL     -0.452225
      2 C2         -0.5840    3.8220    4.6110 c         1 MOL      0.800477
      3 O1         -0.6580    2.5850    4.5760 o         1 MOL     -0.623216
      4 H1          0.0910    3.7370    6.6650 hc        1 MOL      0.110587
      5 H2          0.6230    5.1870    5.7800 hc        1 MOL      0.110587
      6 H3         -1.0650    5.0480    6.3290 hc        1 MOL      0.110587
      7 N1         -0.9970    4.6350    3.6610 n         1 MOL     -0.689101
      8 C3         -1.5790    4.1920    2.3770 c3        1 MOL      0.325162
      9 C4         -1.3640    5.2340    1.2420 c         1 MOL      0.435160
     10 O2         -1.4320    6.4450    1.4270 o         1 MOL     -0.583227
     11 C5         -3.0950    4.0780    2.5360 c3        1 MOL     -0.239231
     12 C6         -3.7660    3.6730    1.1760 c         1 MOL      0.652300
     13 O3         -4.7320    4.3370    0.8150 o         1 MOL     -0.623161
     14 O4         -3.2480    2.6880    0.5420 o         1 MOL     -0.623161
     15 H4         -1.2050    5.5870    3.9160 hn        1 MOL      0.328680
     16 H5         -1.1040    3.2580    2.0640 h1        1 MOL      0.046562
     17 H6         -3.4380    5.0570    2.8860 hc        1 MOL      0.030910
     18 H7         -3.3010    3.2870    3.2670 hc        1 MOL      0.030910
     19 N2         -1.0360    4.8100   -0.0090 n         1 MOL     -0.128767
     20 C7         -0.8500    5.5850   -1.2300 c3        1 MOL     -0.057580
     21 C8         -1.7110    5.1670   -2.4220 c         1 MOL      0.594231
     22 O5         -1.7500    5.9440   -3.3780 o         1 MOL     -0.586404
     23 C9          0.6910    5.5870   -1.5420 c3        1 MOL      0.059648
     24 C10         1.4920    6.4310   -0.4910 c3        1 MOL      0.126820
     25 C11         1.0260    6.0040   -3.0250 c3        1 MOL     -0.113259
     26 C12         3.0130    6.5790   -0.8840 c3        1 MOL     -0.165378
     27 H8         -0.9290    3.8110   -0.0290 hn        1 MOL     -0.004865
     28 H9         -1.2330    6.5960   -1.0580 h1        1 MOL      0.083329
     29 H10         1.0360    4.5610   -1.5120 hc        1 MOL      0.043168
     30 H11         1.4460    5.9410    0.4770 hc        1 MOL     -0.024517
     31 H12         1.0290    7.4100   -0.3310 hc        1 MOL     -0.024517
     32 H13         0.7270    7.0350   -3.2390 hc        1 MOL      0.017215
     33 H14         2.0740    5.9450   -3.2970 hc        1 MOL      0.017215
     34 H15         0.5680    5.3470   -3.7640 hc        1 MOL      0.017215
     35 H16         3.4830    6.8820    0.0560 hc        1 MOL      0.030311
     36 H17         3.3330    5.6200   -1.2730 hc        1 MOL      0.030311
     37 H18         3.1920    7.4630   -1.5010 hc        1 MOL      0.030311
     38 N3         -2.5210    4.0690   -2.3750 n         1 MOL     -0.423699
     39 C13        -3.3280    3.5070   -3.5320 c3        1 MOL      0.015760
     40 C14        -4.8160    3.1720   -3.2100 c         1 MOL      0.345527
     41 O6         -5.5470    2.8960   -4.1600 o         1 MOL     -0.524498
     42 C15        -2.7600    2.2290   -4.1430 c3        1 MOL     -0.151333
     43 C16        -2.5320    1.1380   -3.1580 c         1 MOL      0.711647
     44 O7         -3.1570    1.0150   -2.0800 o         1 MOL     -0.710154
     45 O8         -1.6770    0.2780   -3.4820 o         1 MOL     -0.710154
     46 H19        -2.5750    3.5610   -1.5000 hn        1 MOL      0.320572
     47 H20        -3.3440    4.2530   -4.3350 h1        1 MOL      0.101299
     48 H21        -1.8670    2.6130   -4.6280 hc        1 MOL      0.064703
     49 H22        -3.3070    1.8470   -5.0040 hc        1 MOL      0.064703
     50 N4         -5.2480    3.1440   -1.9180 n         1 MOL     -0.086744
     51 C17        -6.7110    2.8250   -1.4790 c3        1 MOL     -0.216719
     52 C18        -7.1720    1.4270   -1.8450 c         1 MOL      0.399206
     53 O9         -8.3590    1.1510   -2.1930 o         1 MOL     -0.597286
     54 H23        -4.5160    3.1790   -1.2230 hn        1 MOL     -0.007098
     55 H24        -7.3360    3.5210   -2.0320 h1        1 MOL      0.125177
     56 H25        -6.8450    2.9350   -0.4030 h1        1 MOL      0.125177
     57 N5         -6.2970    0.4430   -1.8550 n         1 MOL     -0.038385
     58 C19        -6.6490   -0.9000   -2.3990 c3        1 MOL     -0.121901
     59 C20        -7.2430   -1.8610   -1.3170 c         1 MOL      0.496680
     60 O10        -7.7890   -2.9160   -1.6200 o         1 MOL     -0.535491
     61 C21        -5.3410   -1.4690   -2.9990 c3        1 MOL     -0.221981
     62 C22        -4.2820   -1.8670   -2.0170 c         1 MOL      0.826991
     63 O11        -4.2120   -1.4110   -0.8740 o         1 MOL     -0.721297
     64 O12        -3.4950   -2.7920   -2.3310 o         1 MOL     -0.721297
     65 H26        -5.3360    0.6410   -1.6340 hn        1 MOL      0.199363
     66 H27        -7.4420   -0.8230   -3.1500 h1        1 MOL      0.135101
     67 H28        -4.8870   -0.7500   -3.6830 hc        1 MOL      0.068395
     68 H29        -5.5890   -2.3610   -3.5830 hc        1 MOL      0.068395
     69 N6         -7.0710   -1.4890   -0.0150 n         1 MOL     -0.258154
     70 C23        -7.3730   -2.2950    1.1230 c3        1 MOL     -0.347583
     71 C24        -6.3080   -3.3460    1.5260 c         1 MOL      0.535274
     72 O13        -6.5850   -4.1800    2.3810 o         1 MOL     -0.607328
     73 H30        -6.4030   -0.7410    0.1360 hn        1 MOL      0.165051
     74 H31        -8.3150   -2.8410    1.0310 h1        1 MOL      0.146875
     75 H32        -7.3220   -1.5920    1.9430 h1        1 MOL      0.146875
     76 N7         -5.1100   -3.2890    1.0080 n         1 MOL     -0.166253
     77 C25        -4.0030   -4.0600    1.4830 c3        1 MOL      0.006957
     78 C26        -2.7910   -3.2040    1.8980 c         1 MOL      0.379006
     79 O14        -2.8130   -1.9750    1.6680 o         1 MOL     -0.446799
     80 C27        -3.5240   -5.0780    0.4140 c3        1 MOL     -0.126161
     81 C28        -4.6850   -5.9410   -0.1550 c3        1 MOL     -0.215932
     82 C29        -4.2930   -7.2220   -0.9130 c         1 MOL      0.695299
     83 N8         -5.1320   -7.7790   -1.7530 n         1 MOL     -0.802126
     84 O15        -3.1680   -7.6750   -0.8810 o         1 MOL     -0.569307
     85 H33        -4.9670   -2.6940    0.1990 hn        1 MOL      0.233287
     86 H34        -4.2240   -4.6040    2.4050 h1        1 MOL      0.048463
     87 H35        -2.7540   -5.7410    0.7980 hc        1 MOL      0.078664
     88 H36        -3.1560   -4.4530   -0.4030 hc        1 MOL      0.078664
     89 H37        -5.2050   -5.2810   -0.8440 hc        1 MOL      0.076721
     90 H38        -5.3690   -6.2180    0.6460 hc        1 MOL      0.076721
     91 H39        -6.0060   -7.3410   -2.0280 hn        1 MOL      0.345334
     92 H40        -4.8990   -8.6480   -2.2100 hn        1 MOL      0.345334
     93 N9         -1.6710   -3.8170    2.3220 n         1 MOL     -0.391625
     94 C30        -0.3960   -3.0870    2.5740 c3        1 MOL     -0.082858
     95 C31         0.7350   -3.5290    1.5720 c         1 MOL      0.556359
     96 O16         1.0490   -4.6850    1.4460 o         1 MOL     -0.552442
     97 C32         0.0090   -3.2210    4.0690 c3        1 MOL      0.227835
     98 C33         1.0560   -2.2400    4.4790 c3        1 MOL     -0.264318
     99 C34        -1.2350   -2.7900    4.8780 c3        1 MOL     -0.264318
    100 H41        -1.7740   -4.8180    2.3440 hn        1 MOL      0.289188
    101 H42        -0.6070   -2.0370    2.3490 h1        1 MOL      0.146903
    102 H43         0.3640   -4.2130    4.3480 hc        1 MOL     -0.010897
    103 H44         1.1620   -2.2830    5.5620 hc        1 MOL      0.054162
    104 H45         1.9700   -2.5710    3.9950 hc        1 MOL      0.054162
    105 H46         0.9190   -1.1880    4.2340 hc        1 MOL      0.054162
    106 H47        -0.9560   -2.5660    5.9090 hc        1 MOL      0.054162
    107 H48        -1.7870   -1.9890    4.3830 hc        1 MOL      0.054162
    108 H49        -1.9110   -3.6400    4.9150 hc        1 MOL      0.054162
    109 N10         1.1940   -2.5390    0.7470 n         1 MOL     -0.311999
    110 C35         2.3110   -2.7030   -0.1180 c3        1 MOL      0.112958
    111 C36         3.7170   -2.4680    0.4970 c         1 MOL      0.186792
    112 O17         3.8720   -1.8720    1.5100 o         1 MOL     -0.286316
    113 C37         2.1620   -1.7420   -1.3490 c3        1 MOL     -0.318800
    114 C38         3.2870   -1.7460   -2.3500 c         1 MOL      0.694269
    115 N11         3.3160   -2.7500   -3.1430 n         1 MOL     -0.818712
    116 O18         4.2190   -0.9340   -2.3480 o         1 MOL     -0.565768
    117 H50         0.9160   -1.5870    0.9590 hn        1 MOL      0.124823
    118 H51         2.3140   -3.7280   -0.4940 h1        1 MOL      0.051781
    119 H52         2.1650   -0.7250   -0.9530 hc        1 MOL      0.134521
    120 H53         1.2500   -1.8840   -1.9170 hc        1 MOL      0.134521
    121 H54         2.7340   -3.5440   -2.9330 hn        1 MOL      0.384508
    122 H55         3.8010   -2.4970   -3.9950 hn        1 MOL      0.384508
    123 N12         4.8050   -2.9330   -0.1340 n         1 MOL     -0.054737
    124 C39         6.1320   -3.0480    0.5280 c3        1 MOL      0.039757
    125 C40         6.7090   -1.6650    0.8110 c         1 MOL      0.270199
    126 O19         7.4830   -1.5130    1.7460 o         1 MOL     -0.514190
    127 C41         7.1290   -3.7910   -0.3530 c3        1 MOL     -0.126608
    128 C42         7.2430   -3.3450   -1.8180 ca        1 MOL      0.097432
    129 C43         6.2940   -3.7780   -2.7180 ca        1 MOL     -0.231353
    130 C44         8.1220   -2.3280   -2.2350 ca        1 MOL     -0.231353
    131 C45         6.3970   -3.4550   -4.0230 ca        1 MOL     -0.225290
    132 C46         8.3080   -2.1370   -3.5840 ca        1 MOL     -0.225290
    133 C47         7.5390   -2.7870   -4.5630 ca        1 MOL      0.330430
    134 O20         7.6550   -2.5450   -5.8950 oh        1 MOL     -0.542922
    135 H56         4.7300   -3.3430   -1.0480 hn        1 MOL      0.024232
    136 H57         5.9960   -3.6220    1.4530 h1        1 MOL      0.075798
    137 H58         6.7270   -4.8040   -0.3620 hc        1 MOL      0.054775
    138 H59         8.1500   -3.8510    0.0230 hc        1 MOL      0.054775
    139 H60         5.4550   -4.3650   -2.3910 ha        1 MOL      0.179285
    140 H61         8.6650   -1.8140   -1.4570 ha        1 MOL      0.179285
    141 H62         5.5610   -3.6900   -4.6760 ha        1 MOL      0.126357
    142 H63         9.0460   -1.4180   -3.9140 ha        1 MOL      0.126357
    143 H64         8.2230   -1.7710   -5.9860 ho        1 MOL      0.408582
    144 N13         6.3730   -0.6250   -0.0050 n         1 MOL     -0.056532
    145 C48         6.7320    0.7890    0.2640 c3        1 MOL     -0.164859
    146 C49         5.8580    1.3670    1.4500 c         1 MOL      0.350624
    147 O21         6.3270    2.3760    2.0890 o         1 MOL     -0.527296
    148 C50         6.3740    1.6120   -0.9730 c3        1 MOL      0.328164
    149 C51         7.3770    1.4460   -2.1130 c3        1 MOL     -0.226977
    150 C52         8.7850    2.0520   -1.8410 c         1 MOL      0.725485
    151 O22         9.1810    2.9570   -2.6630 o         1 MOL     -0.743637
    152 O23         9.3990    1.7510   -0.7990 o         1 MOL     -0.743637
    153 H65         5.8040   -0.7100   -0.8310 hn        1 MOL      0.261634
    154 H66         7.8010    0.8400    0.4940 h1        1 MOL      0.162276
    155 H67         6.3590    2.6580   -0.6440 hc        1 MOL     -0.053431
    156 H68         5.3580    1.4090   -1.3220 hc        1 MOL     -0.053431
    157 H69         7.0550    1.8690   -3.0660 hc        1 MOL     -0.008665
    158 H70         7.6270    0.4020   -2.2650 hc        1 MOL     -0.008665
    159 N14         4.6830    0.8700    1.7340 n         1 MOL     -0.154457
    160 C53         3.7140    1.3390    2.7170 c3        1 MOL     -0.157165
    161 C54         3.9030    0.7990    4.1110 c         1 MOL      0.489193
    162 O24         3.7810    1.4930    5.1360 o         1 MOL     -0.565806
    163 C55         2.3830    1.0280    2.2270 c3        1 MOL      0.129164
    164 C56         1.8780    1.5590    0.8970 c3        1 MOL     -0.089858
    165 C57         0.4080    1.1980    0.7320 c         1 MOL      0.747172
    166 O25        -0.3730    1.9260    0.0150 o         1 MOL     -0.695916
    167 O26        -0.0580    0.1460    1.1810 o         1 MOL     -0.695916
    168 H71         4.4340    0.0690    1.1700 hn        1 MOL      0.078780
    169 H72         3.8390    2.4190    2.7910 h1        1 MOL      0.093454
    170 H73         1.6880    1.2920    3.0220 hc        1 MOL      0.031880
    171 H74         2.2450   -0.0560    2.1720 hc        1 MOL      0.031880
    172 H75         2.5020    1.2090    0.0830 hc        1 MOL     -0.001120
    173 H76         1.7810    2.6430    0.9160 hc        1 MOL     -0.001120
    174 N15         4.2050   -0.4970    4.2450 n         1 MOL     -0.102750
    175 C58         4.4210   -1.1620    5.5470 c3        1 MOL     -0.206434
    176 H77         3.4590   -1.4300    5.9820 h1        1 MOL      0.081232
    177 H78         5.0170   -2.0620    5.4010 h1        1 MOL      0.081232
    178 H79         4.9460   -0.4830    6.2190 h1        1 MOL      0.081232
    179 H80         4.1530   -1.0460    3.3930 hn        1 MOL      0.109802
    180 Ca1        -2.5770    0.2880    0.3820 Ca        1 MOL      1.716525
    181 O27        -2.1310    0.5670    3.1180 oh        1 MOL     -0.901843
    182 H81        -1.5430    1.0340    3.7050 ho        1 MOL      0.428240
    183 H82        -2.7560    0.1240    3.6900 ho        1 MOL      0.428240
    184 O28        -4.9860    0.3540    2.0680 oh        1 MOL     -0.901843
    185 H83        -4.8540    0.4560    3.0120 ho        1 MOL      0.428240
    186 H84        -5.7610    0.8810    1.8710 ho        1 MOL      0.428240
    187 O29        -1.4210   -1.2920   -1.3750 oh        1 MOL     -0.901843
    188 H85        -1.4340   -0.7320   -2.1460 ho        1 MOL      0.428240
    189 H86        -2.0340   -1.9980   -1.5780 ho        1 MOL      0.428240
@<TRIPOS>BOND
     1    1    2 1   
     2    1    4 1   
     3    1    5 1   
     4    1    6 1   
     5    2    3 2   
     6    2    7 1   
     7    7    8 1   
     8    7   15 1   
     9    8    9 1   
    10    8   11 1   
    11    8   16 1   
    12    9   10 2   
    13    9   19 1   
    14   11   12 1   
    15   11   17 1   
    16   11   18 1   
    17   12   13 1   
    18   12   14 1   
    19   19   20 1   
    20   19   27 1   
    21   20   21 1   
    22   20   23 1   
    23   20   28 1   
    24   21   22 2   
    25   21   38 1   
    26   23   24 1   
    27   23   25 1   
    28   23   29 1   
    29   24   26 1   
    30   24   30 1   
    31   24   31 1   
    32   25   32 1   
    33   25   33 1   
    34   25   34 1   
    35   26   35 1   
    36   26   36 1   
    37   26   37 1   
    38   38   39 1   
    39   38   46 1   
    40   39   40 1   
    41   39   42 1   
    42   39   47 1   
    43   40   41 2   
    44   40   50 1   
    45   42   43 1   
    46   42   48 1   
    47   42   49 1   
    48   43   44 1   
    49   43   45 1   
    50   50   51 1   
    51   50   54 1   
    52   51   52 1   
    53   51   55 1   
    54   51   56 1   
    55   52   53 2   
    56   52   57 1   
    57   57   58 1   
    58   57   65 1   
    59   58   59 1   
    60   58   61 1   
    61   58   66 1   
    62   59   60 2   
    63   59   69 1   
    64   61   62 1   
    65   61   67 1   
    66   61   68 1   
    67   62   63 1   
    68   62   64 1   
    69   69   70 1   
    70   69   73 1   
    71   70   71 1   
    72   70   74 1   
    73   70   75 1   
    74   71   72 2   
    75   71   76 1   
    76   76   77 1   
    77   76   85 1   
    78   77   78 1   
    79   77   80 1   
    80   77   86 1   
    81   78   79 2   
    82   78   93 1   
    83   80   81 1   
    84   80   87 1   
    85   80   88 1   
    86   81   82 1   
    87   81   89 1   
    88   81   90 1   
    89   82   83 1   
    90   82   84 2   
    91   83   91 1   
    92   83   92 1   
    93   93   94 1   
    94   93  100 1   
    95   94   95 1   
    96   94   97 1   
    97   94  101 1   
    98   95   96 2   
    99   95  109 1   
   100   97   98 1   
   101   97   99 1   
   102   97  102 1   
   103   98  103 1   
   104   98  104 1   
   105   98  105 1   
   106   99  106 1   
   107   99  107 1   
   108   99  108 1   
   109  109  110 1   
   110  109  117 1   
   111  110  111 1   
   112  110  113 1   
   113  110  118 1   
   114  111  112 2   
   115  111  123 1   
   116  113  114 1   
   117  113  119 1   
   118  113  120 1   
   119  114  115 1   
   120  114  116 2   
   121  115  121 1   
   122  115  122 1   
   123  123  124 1   
   124  123  135 1   
   125  124  125 1   
   126  124  127 1   
   127  124  136 1   
   128  125  126 2   
   129  125  144 1   
   130  127  128 1   
   131  127  137 1   
   132  127  138 1   
   133  128  129 ar  
   134  128  130 ar  
   135  129  131 ar  
   136  129  139 1   
   137  130  132 ar  
   138  130  140 1   
   139  131  133 ar  
   140  131  141 1   
   141  132  133 ar  
   142  132  142 1   
   143  133  134 1   
   144  134  143 1   
   145  144  145 1   
   146  144  153 1   
   147  145  146 1   
   148  145  148 1   
   149  145  154 1   
   150  146  147 2   
   151  146  159 1   
   152  148  149 1   
   153  148  155 1   
   154  148  156 1   
   155  149  150 1   
   156  149  157 1   
   157  149  158 1   
   158  150  151 1   
   159  150  152 1   
   160  159  160 1   
   161  159  168 1   
   162  160  161 1   
   163  160  163 1   
   164  160  169 1   
   165  161  162 2   
   166  161  174 1   
   167  163  164 1   
   168  163  170 1   
   169  163  171 1   
   170  164  165 1   
   171  164  172 1   
   172  164  173 1   
   173  165  166 1   
   174  165  167 1   
   175  174  175 1   
   176  174  179 1   
   177  175  176 1   
   178  175  177 1   
   179  175  178 1   
   180  181  182 1   
   181  181  183 1   
   182  184  185 1   
   183  184  186 1   
   184  187  188 1   
   185  187  189 1   
@<TRIPOS>SUBSTRUCTURE
     1 MOL         1 TEMP              0 ****  ****    0 ROOT
