@<TRIPOS>MOLECULE
MOL
  179   176     1     0     0
SMALL
resp


@<TRIPOS>ATOM
      1 C1         -0.8380    3.3410    6.2070 c3        1 MOL     -0.271949
      2 C2         -0.8410    3.2290    4.6780 c         1 MOL      0.654354
      3 O1          0.1070    3.6700    4.0340 o         1 MOL     -0.580011
      4 H1          0.1630    3.1280    6.5830 hc        1 MOL      0.073125
      5 H2         -1.1280    4.3500    6.4990 hc        1 MOL      0.073125
      6 H3         -1.5430    2.6230    6.6260 hc        1 MOL      0.073125
      7 N1         -1.7740    2.5330    4.0390 n         1 MOL     -0.494793
      8 C3         -1.8570    2.4200    2.6180 c3        1 MOL     -0.158148
      9 C4         -2.6410    3.6380    2.0490 c         1 MOL      0.545572
     10 O2         -3.8560    3.8110    2.1680 o         1 MOL     -0.515089
     11 C5         -2.7080    1.1160    2.3580 c3        1 MOL     -0.208161
     12 C6         -2.6090    0.6720    0.9060 c         1 MOL      0.751743
     13 O3         -1.8380    1.3380    0.1290 o         1 MOL     -0.800336
     14 O4         -3.2810   -0.3330    0.5790 o         1 MOL     -0.800336
     15 H4         -2.4770    2.0660    4.5970 hn        1 MOL      0.316488
     16 H5         -0.9290    2.4650    2.0490 h1        1 MOL      0.174735
     17 H6         -3.7580    1.1880    2.6460 hc        1 MOL      0.070148
     18 H7         -2.2960    0.3070    2.9570 hc        1 MOL      0.070148
     19 N2         -1.8750    4.4660    1.3040 n         1 MOL     -0.326415
     20 C7         -2.3810    5.7610    0.7760 c3        1 MOL      0.003309
     21 C8         -3.4420    5.5150   -0.3260 c         1 MOL      0.256018
     22 O5         -4.5240    6.1090   -0.2260 o         1 MOL     -0.498447
     23 C9         -1.1410    6.5400    0.3230 c3        1 MOL     -0.099424
     24 C10        -1.3820    7.9700   -0.1620 c3        1 MOL     -0.021017
     25 C11        -0.0810    8.6810   -0.2630 c3        1 MOL     -0.028657
     26 C12        -0.1770    9.9480   -1.1360 c3        1 MOL      0.023656
     27 N3         -0.1050   11.1330   -0.3020 n4        1 MOL     -0.414738
     28 H8         -0.8600    4.3700    1.3320 hn        1 MOL      0.243958
     29 H9         -2.9440    6.1680    1.6160 h1        1 MOL      0.116416
     30 H10        -0.7130    6.0070   -0.5370 hc        1 MOL      0.060345
     31 H11        -0.4530    6.6860    1.1600 hc        1 MOL      0.060345
     32 H12        -2.0050    8.4200    0.6080 hc        1 MOL      0.029985
     33 H13        -1.8840    7.9990   -1.1320 hc        1 MOL      0.029985
     34 H14         0.6090    8.0720   -0.8480 hc        1 MOL      0.053055
     35 H15         0.4640    8.7460    0.6770 hc        1 MOL      0.053055
     36 H16        -1.1770    9.9250   -1.5890 hx        1 MOL      0.100606
     37 H17         0.5510    9.9090   -1.9440 hx        1 MOL      0.100606
     38 H18         0.7630   11.2930    0.1930 hn        1 MOL      0.342412
     39 H19        -0.2350   11.9560   -0.8780 hn        1 MOL      0.342412
     40 H20        -0.8080   11.0680    0.4100 hn        1 MOL      0.342412
     41 N4         -3.2070    4.5690   -1.2550 n         1 MOL     -0.199090
     42 C13        -4.2120    4.1080   -2.2190 c3        1 MOL     -0.012375
     43 C14        -5.2710    3.2820   -1.5220 c         1 MOL      0.404918
     44 O6         -6.3470    3.0580   -2.0580 o         1 MOL     -0.563218
     45 C15        -3.5270    3.3880   -3.3740 c3        1 MOL     -0.315429
     46 C16        -2.7670    2.1200   -2.9530 c         1 MOL      0.859511
     47 O7         -1.5210    2.0580   -2.7660 o         1 MOL     -0.792003
     48 O8         -3.4420    1.1060   -2.7230 o         1 MOL     -0.792003
     49 H21        -2.2980    4.1140   -1.3070 hn        1 MOL      0.248555
     50 H22        -4.6020    5.0590   -2.5910 h1        1 MOL      0.118953
     51 H23        -2.7780    4.0170   -3.8610 hc        1 MOL      0.081491
     52 H24        -4.2610    3.0640   -4.1090 hc        1 MOL      0.081491
     53 N5         -5.0960    2.8730   -0.2930 n         1 MOL      0.023264
     54 C17        -6.1330    2.2450    0.5000 c3        1 MOL     -0.300071
     55 C18        -6.4530    0.7510    0.1990 c         1 MOL      0.606163
     56 O9         -7.1940    0.1020    0.9310 o         1 MOL     -0.580521
     57 H25        -4.1970    2.9930    0.1330 hn        1 MOL      0.196893
     58 H26        -7.1130    2.7070    0.4550 h1        1 MOL      0.125679
     59 H27        -5.7470    2.3390    1.5160 h1        1 MOL      0.125679
     60 N6         -5.8450    0.1160   -0.8820 n         1 MOL     -0.417902
     61 C19        -6.0850   -1.2500   -1.2830 c3        1 MOL     -0.008752
     62 C20        -5.8810   -2.4560   -0.3290 c         1 MOL      0.312727
     63 O10        -6.2100   -3.5800   -0.7580 o         1 MOL     -0.478700
     64 C21        -5.5600   -1.5430   -2.7920 c3        1 MOL     -0.181896
     65 C22        -4.2000   -2.2120   -2.7840 c         1 MOL      0.649651
     66 N7         -3.8450   -2.8590   -3.8800 n         1 MOL     -0.645338
     67 O11        -3.3280   -2.0850   -1.9160 o         1 MOL     -0.596548
     68 H28        -5.1990    0.6940   -1.4100 hn        1 MOL      0.335128
     69 H29        -7.1590   -1.2550   -1.4600 h1        1 MOL      0.113081
     70 H30        -5.5380   -0.6140   -3.3680 hc        1 MOL      0.083151
     71 H31        -6.2890   -2.2680   -3.1720 hc        1 MOL      0.083151
     72 H32        -4.4750   -2.8840   -4.6640 hn        1 MOL      0.302486
     73 H33        -2.9160   -3.2480   -3.9850 hn        1 MOL      0.302486
     74 N8         -5.3140   -2.1550    0.8660 n         1 MOL     -0.072206
     75 C23        -5.1890   -3.0930    2.0120 c3        1 MOL     -0.204380
     76 C24        -3.8410   -3.8150    2.0110 c         1 MOL      0.541476
     77 O12        -3.6290   -4.7300    2.8440 o         1 MOL     -0.553569
     78 H34        -5.0830   -1.1890    1.0530 hn        1 MOL      0.264716
     79 H35        -6.0720   -3.7290    2.0720 h1        1 MOL      0.099216
     80 H36        -5.1870   -2.5440    2.9460 h1        1 MOL      0.099216
     81 N9         -2.9530   -3.3670    1.1230 n         1 MOL     -0.153793
     82 C25        -1.6210   -3.9770    1.1320 c3        1 MOL      0.022278
     83 C26        -0.6270   -2.8630    0.8920 c         1 MOL      0.360376
     84 O13        -0.9170   -1.8890    0.1770 o         1 MOL     -0.443610
     85 C27        -1.6050   -5.0640   -0.0090 c3        1 MOL     -0.017660
     86 C28        -2.2450   -6.4450    0.2410 ca        1 MOL      0.169496
     87 C29        -3.6330   -6.6110    0.2100 ca        1 MOL     -0.267946
     88 C30        -1.3960   -7.5470    0.3370 ca        1 MOL     -0.267946
     89 C31        -4.2080   -7.8870    0.3020 ca        1 MOL     -0.114645
     90 C32        -2.0080   -8.8480    0.4720 ca        1 MOL     -0.114645
     91 C33        -3.4390   -9.0560    0.3530 ca        1 MOL      0.138418
     92 O14        -4.0420  -10.2750    0.6150 oh        1 MOL     -0.417738
     93 H37        -3.1020   -2.5080    0.6010 hn        1 MOL      0.132913
     94 H38        -1.3500   -4.3630    2.1070 h1        1 MOL      0.029066
     95 H39        -0.6050   -5.2570   -0.4080 hc        1 MOL      0.001214
     96 H40        -2.0700   -4.6050   -0.8820 hc        1 MOL      0.001214
     97 H41        -4.2980   -5.7690    0.0530 ha        1 MOL      0.136708
     98 H42        -0.3250   -7.4690    0.4550 ha        1 MOL      0.136708
     99 H43        -5.2860   -7.9690    0.3740 ha        1 MOL      0.117138
    100 H44        -1.3280   -9.6500    0.7080 ha        1 MOL      0.117138
    101 H45        -3.4290  -10.9890    0.8150 ho        1 MOL      0.332370
    102 N10         0.5890   -3.0290    1.3940 n         1 MOL     -0.132219
    103 C34         1.7360   -2.1320    1.1490 c3        1 MOL     -0.357939
    104 C35         3.0340   -2.9230    0.9190 c         1 MOL      0.458290
    105 O15         3.2230   -3.9640    1.5590 o         1 MOL     -0.565257
    106 C36         1.9790   -1.1460    2.2860 c3        1 MOL      0.029561
    107 C37         1.9690   -1.8710    3.7260 c3        1 MOL      0.142412
    108 C38         0.9290    0.0000    2.2020 c3        1 MOL     -0.000746
    109 C39         2.1110   -0.9090    4.9330 c3        1 MOL     -0.183671
    110 H46         0.6870   -3.7600    2.0770 hn        1 MOL      0.226576
    111 H47         1.6510   -1.5970    0.2030 h1        1 MOL      0.196971
    112 H48         2.9140   -0.6530    2.0330 hc        1 MOL     -0.000667
    113 H49         2.8290   -2.5340    3.8320 hc        1 MOL     -0.010307
    114 H50         1.0910   -2.5110    3.8280 hc        1 MOL     -0.010307
    115 H51         1.0000    0.4000    1.1930 hc        1 MOL      0.022004
    116 H52        -0.0770   -0.3780    2.3830 hc        1 MOL      0.022004
    117 H53         1.1300    0.8530    2.8490 hc        1 MOL      0.022004
    118 H54         2.7130   -1.4510    5.6620 hc        1 MOL      0.039248
    119 H55         2.6160    0.0380    4.7420 hc        1 MOL      0.039248
    120 H56         1.1690   -0.8160    5.4670 hc        1 MOL      0.039248
    121 N11         3.9150   -2.5000    0.0460 n         1 MOL     -0.010210
    122 C40         5.1760   -3.2200   -0.4000 c3        1 MOL     -0.168054
    123 C41         6.3500   -2.3770    0.0250 c         1 MOL      0.659662
    124 O16         6.1820   -1.2980    0.5830 o         1 MOL     -0.548222
    125 C42         5.1320   -3.4190   -1.9640 c3        1 MOL      0.090743
    126 O17         4.9200   -2.1440   -2.5150 oh        1 MOL     -0.605891
    127 H57         3.7970   -1.5800   -0.3390 hn        1 MOL      0.047952
    128 H58         5.2470   -4.1480    0.1580 h1        1 MOL      0.081856
    129 H59         4.2930   -4.0780   -2.1750 h1        1 MOL      0.039646
    130 H60         6.0650   -3.8110   -2.3500 h1        1 MOL      0.039646
    131 H61         3.9790   -1.9650   -2.6110 ho        1 MOL      0.456591
    132 N12         7.4940   -2.8580   -0.2900 n         1 MOL     -0.467316
    133 C43         8.6900   -2.1290    0.1180 c3        1 MOL     -0.004482
    134 C44         8.7970   -0.6820   -0.3850 c         1 MOL      0.613607
    135 O18         9.0140    0.1700    0.4690 o         1 MOL     -0.536248
    136 C45         9.9250   -3.0430   -0.0250 c3        1 MOL     -0.324266
    137 H62         7.5690   -3.6580   -0.9030 hn        1 MOL      0.313307
    138 H63         8.4930   -1.9060    1.1630 h1        1 MOL      0.133597
    139 H64        10.0360   -3.2890   -1.0800 hc        1 MOL      0.101850
    140 H65        10.7860   -2.5050    0.3510 hc        1 MOL      0.101850
    141 H66         9.9220   -3.9880    0.5180 hc        1 MOL      0.101850
    142 N13         8.4370   -0.3800   -1.6530 n         1 MOL     -0.565127
    143 C46         8.3540    0.8900   -2.2440 c3        1 MOL      0.153623
    144 C47         7.3580    1.8800   -1.5320 c         1 MOL      0.395056
    145 O19         7.5960    3.0420   -1.6110 o         1 MOL     -0.520717
    146 C48         7.9670    0.7870   -3.7120 c3        1 MOL     -0.382143
    147 H67         8.0120   -1.1360   -2.1630 hn        1 MOL      0.366177
    148 H68         9.3300    1.3680   -2.2280 h1        1 MOL      0.089506
    149 H69         8.8160    0.4480   -4.3080 hc        1 MOL      0.105783
    150 H70         7.2650   -0.0090   -3.9360 hc        1 MOL      0.105783
    151 H71         7.6440    1.7830   -4.0180 hc        1 MOL      0.105783
    152 N14         6.3660    1.3240   -0.8270 n         1 MOL     -0.057126
    153 C49         5.2820    2.0110   -0.1690 c3        1 MOL     -0.125086
    154 C50         5.4290    2.1580    1.3980 c         1 MOL      0.324932
    155 O20         4.7450    2.9280    2.0730 o         1 MOL     -0.524239
    156 C51         3.8580    1.3340   -0.3280 c3        1 MOL      0.083101
    157 C52         3.3340    1.2170   -1.8350 c3        1 MOL     -0.277617
    158 C53         2.3020    0.0560   -2.0010 c         1 MOL      0.831692
    159 O21         2.6730   -0.9410   -2.5650 o         1 MOL     -0.749702
    160 O22         1.1980    0.2380   -1.4480 o         1 MOL     -0.749702
    161 H72         6.2910    0.3220   -0.7020 hn        1 MOL      0.093762
    162 H73         5.1150    2.9990   -0.6110 h1        1 MOL      0.108161
    163 H74         3.1430    1.8690    0.3070 hc        1 MOL      0.051589
    164 H75         3.9040    0.3380    0.0980 hc        1 MOL      0.051589
    165 H76         4.1660    1.0650   -2.5320 hc        1 MOL      0.049617
    166 H77         2.9340    2.1410   -2.2600 hc        1 MOL      0.049617
    167 N15         6.3930    1.4710    1.9810 n         1 MOL     -0.004191
    168 C54         6.9300    1.5960    3.3140 c3        1 MOL     -0.159313
    169 H78         7.8900    1.0840    3.3670 h1        1 MOL      0.076060
    170 H79         7.0670    2.6500    3.5530 h1        1 MOL      0.076060
    171 H80         6.2390    1.1470    4.0280 h1        1 MOL      0.076060
    172 H81         6.7600    0.7830    1.3460 hn        1 MOL      0.098339
    173 Ca1        -1.4020   -0.3470   -1.8110 Ca        1 MOL      1.765484
    174 O23        -0.2800   -2.5130   -2.6470 oh        1 MOL     -0.796883
    175 H82         0.4040   -3.1600   -2.4620 ho        1 MOL      0.392821
    176 H83        -0.7780   -2.8890   -3.3670 ho        1 MOL      0.392821
    177 O24        -0.9150   -0.6740   -4.5330 oh        1 MOL     -0.796883
    178 H84        -0.0350   -0.9250   -4.8290 ho        1 MOL      0.392821
    179 H85        -1.4660   -0.8130   -5.3030 ho        1 MOL      0.392821
@<TRIPOS>BOND
     1    1    2 1   
     2    1    4 1   
     3    1    5 1   
     4    1    6 1   
     5    2    3 2   
     6    2    7 1   
     7    7    8 1   
     8    7   15 1   
     9    8    9 1   
    10    8   11 1   
    11    8   16 1   
    12    9   10 2   
    13    9   19 1   
    14   11   12 1   
    15   11   17 1   
    16   11   18 1   
    17   12   13 1   
    18   12   14 1   
    19   19   20 1   
    20   19   28 1   
    21   20   21 1   
    22   20   23 1   
    23   20   29 1   
    24   21   22 2   
    25   21   41 1   
    26   23   24 1   
    27   23   30 1   
    28   23   31 1   
    29   24   25 1   
    30   24   32 1   
    31   24   33 1   
    32   25   26 1   
    33   25   34 1   
    34   25   35 1   
    35   26   27 1   
    36   26   36 1   
    37   26   37 1   
    38   27   38 1   
    39   27   39 1   
    40   27   40 1   
    41   41   42 1   
    42   41   49 1   
    43   42   43 1   
    44   42   45 1   
    45   42   50 1   
    46   43   44 2   
    47   43   53 1   
    48   45   46 1   
    49   45   51 1   
    50   45   52 1   
    51   46   47 1   
    52   46   48 1   
    53   53   54 1   
    54   53   57 1   
    55   54   55 1   
    56   54   58 1   
    57   54   59 1   
    58   55   56 2   
    59   55   60 1   
    60   60   61 1   
    61   60   68 1   
    62   61   62 1   
    63   61   64 1   
    64   61   69 1   
    65   62   63 2   
    66   62   74 1   
    67   64   65 1   
    68   64   70 1   
    69   64   71 1   
    70   65   66 1   
    71   65   67 2   
    72   66   72 1   
    73   66   73 1   
    74   74   75 1   
    75   74   78 1   
    76   75   76 1   
    77   75   79 1   
    78   75   80 1   
    79   76   77 2   
    80   76   81 1   
    81   81   82 1   
    82   81   93 1   
    83   82   83 1   
    84   82   85 1   
    85   82   94 1   
    86   83   84 2   
    87   83  102 1   
    88   85   86 1   
    89   85   95 1   
    90   85   96 1   
    91   86   87 ar  
    92   86   88 ar  
    93   87   89 ar  
    94   87   97 1   
    95   88   90 ar  
    96   88   98 1   
    97   89   91 ar  
    98   89   99 1   
    99   90   91 ar  
   100   90  100 1   
   101   91   92 1   
   102   92  101 1   
   103  102  103 1   
   104  102  110 1   
   105  103  104 1   
   106  103  106 1   
   107  103  111 1   
   108  104  105 2   
   109  104  121 1   
   110  106  107 1   
   111  106  108 1   
   112  106  112 1   
   113  107  109 1   
   114  107  113 1   
   115  107  114 1   
   116  108  115 1   
   117  108  116 1   
   118  108  117 1   
   119  109  118 1   
   120  109  119 1   
   121  109  120 1   
   122  121  122 1   
   123  121  127 1   
   124  122  123 1   
   125  122  125 1   
   126  122  128 1   
   127  123  124 2   
   128  123  132 1   
   129  125  126 1   
   130  125  129 1   
   131  125  130 1   
   132  126  131 1   
   133  132  133 1   
   134  132  137 1   
   135  133  134 1   
   136  133  136 1   
   137  133  138 1   
   138  134  135 2   
   139  134  142 1   
   140  136  139 1   
   141  136  140 1   
   142  136  141 1   
   143  142  143 1   
   144  142  147 1   
   145  143  144 1   
   146  143  146 1   
   147  143  148 1   
   148  144  145 2   
   149  144  152 1   
   150  146  149 1   
   151  146  150 1   
   152  146  151 1   
   153  152  153 1   
   154  152  161 1   
   155  153  154 1   
   156  153  156 1   
   157  153  162 1   
   158  154  155 2   
   159  154  167 1   
   160  156  157 1   
   161  156  163 1   
   162  156  164 1   
   163  157  158 1   
   164  157  165 1   
   165  157  166 1   
   166  158  159 1   
   167  158  160 1   
   168  167  168 1   
   169  167  172 1   
   170  168  169 1   
   171  168  170 1   
   172  168  171 1   
   173  174  175 1   
   174  174  176 1   
   175  177  178 1   
   176  177  179 1   
@<TRIPOS>SUBSTRUCTURE
     1 MOL         1 TEMP              0 ****  ****    0 ROOT
