@<TRIPOS>MOLECULE
MOL
  189   185     1     0     0
SMALL
resp


@<TRIPOS>ATOM
      1 C1          0.6210    1.3900    5.7940 c3        1 MOL     -0.205102
      2 C2          0.0140    1.6360    4.3830 c         1 MOL      0.632337
      3 O1          0.4920    2.4050    3.5340 o         1 MOL     -0.617467
      4 H1         -0.1820    1.2170    6.5090 hc        1 MOL      0.065621
      5 H2          1.2740    0.5180    5.7620 hc        1 MOL      0.065621
      6 H3          1.1960    2.2640    6.0990 hc        1 MOL      0.065621
      7 N1         -1.2540    1.2400    4.1750 n         1 MOL     -0.483404
      8 C3         -1.9520    1.1090    2.8910 c3        1 MOL      0.124386
      9 C4         -2.5300    2.4910    2.5120 c         1 MOL      0.323364
     10 O2         -3.7520    2.6650    2.3260 o         1 MOL     -0.419830
     11 C5         -3.1530    0.0970    3.1460 c3        1 MOL     -0.104956
     12 C6         -3.9580   -0.2210    1.9190 c         1 MOL      0.633601
     13 O3         -3.5050    0.0860    0.7790 o         1 MOL     -0.638379
     14 O4         -5.0890   -0.6490    2.1550 o         1 MOL     -0.638379
     15 H4         -1.5990    0.7320    4.9830 hn        1 MOL      0.268603
     16 H5         -1.2490    0.7340    2.1470 h1        1 MOL      0.049120
     17 H6         -3.8370    0.4700    3.9050 hc        1 MOL      0.042841
     18 H7         -2.7830   -0.8690    3.4990 hc        1 MOL      0.042841
     19 N2         -1.6670    3.4650    2.3020 n         1 MOL     -0.147166
     20 C7         -1.9870    4.8700    2.1760 c3        1 MOL     -0.116907
     21 C8         -2.9440    5.2440    1.0590 c         1 MOL      0.504482
     22 O5         -3.4580    6.3900    1.0290 o         1 MOL     -0.578949
     23 C9         -0.6670    5.7010    2.2310 c3        1 MOL     -0.176262
     24 C10         0.2290    5.4180    1.0070 c3        1 MOL     -0.022563
     25 C11         1.6130    6.1230    1.0200 c3        1 MOL      0.122396
     26 C12         2.4810    5.7620   -0.1590 c3        1 MOL     -0.031504
     27 N3          2.4850    6.8320   -1.1620 n4        1 MOL     -0.374980
     28 H8         -0.6900    3.3350    2.5240 hn        1 MOL      0.269150
     29 H9         -2.5410    5.0410    3.0930 h1        1 MOL      0.102343
     30 H10        -0.1690    5.4290    3.1590 hc        1 MOL      0.081297
     31 H11        -0.8350    6.7780    2.1830 hc        1 MOL      0.081297
     32 H12        -0.3190    5.5730    0.0800 hc        1 MOL      0.034819
     33 H13         0.5120    4.3760    1.1250 hc        1 MOL      0.034819
     34 H14         2.1880    5.9700    1.9330 hc        1 MOL     -0.004205
     35 H15         1.5450    7.2110    1.1190 hc        1 MOL     -0.004205
     36 H16         2.1490    4.8020   -0.5460 hx        1 MOL      0.110385
     37 H17         3.5050    5.5330    0.1620 hx        1 MOL      0.110385
     38 H18         3.1200    7.5590   -0.8480 hn        1 MOL      0.324746
     39 H19         2.6850    6.5750   -2.1140 hn        1 MOL      0.324746
     40 H20         1.6120    7.3340   -1.1690 hn        1 MOL      0.324746
     41 N4         -3.1720    4.3840    0.0670 n         1 MOL     -0.200046
     42 C13        -4.1420    4.5380   -0.9910 c3        1 MOL      0.062050
     43 C14        -5.4050    3.6750   -0.9430 c         1 MOL      0.367619
     44 O6         -6.3020    3.7120   -1.8360 o         1 MOL     -0.528217
     45 C15        -3.5670    4.4560   -2.3470 c3        1 MOL     -0.217295
     46 C16        -2.7160    3.2490   -2.7370 c         1 MOL      0.893086
     47 O7         -1.8190    3.4170   -3.5480 o         1 MOL     -0.747347
     48 O8         -2.9880    2.1850   -2.1720 o         1 MOL     -0.747347
     49 H21        -2.7730    3.4590    0.1390 hn        1 MOL      0.100550
     50 H22        -4.4980    5.5690   -0.9490 h1        1 MOL      0.104480
     51 H23        -2.9370    5.3470   -2.3460 hc        1 MOL      0.029371
     52 H24        -4.2460    4.7710   -3.1410 hc        1 MOL      0.029371
     53 N5         -5.5820    2.8710    0.1480 n         1 MOL     -0.159666
     54 C17        -6.8030    2.1960    0.4450 c3        1 MOL     -0.201130
     55 C18        -7.2870    1.0330   -0.2720 c         1 MOL      0.554124
     56 O9         -8.3450    0.5310    0.1340 o         1 MOL     -0.590989
     57 H25        -4.8450    2.8610    0.8490 hn        1 MOL      0.124244
     58 H26        -7.6130    2.9100    0.6430 h1        1 MOL      0.117770
     59 H27        -6.7460    1.7040    1.4120 h1        1 MOL      0.117770
     60 N6         -6.6020    0.5500   -1.2980 n         1 MOL     -0.296179
     61 C19        -7.0870   -0.5780   -2.0760 c3        1 MOL      0.010155
     62 C20        -7.2290   -1.9050   -1.2330 c         1 MOL      0.382752
     63 O10        -7.8610   -2.8090   -1.7530 o         1 MOL     -0.538546
     64 C21        -6.1500   -0.8900   -3.2500 c3        1 MOL     -0.087621
     65 C22        -4.6440   -0.9220   -2.8960 c         1 MOL      0.581399
     66 O11        -4.1910   -1.7250   -2.0070 o         1 MOL     -0.660116
     67 O12        -3.8150   -0.1290   -3.4460 o         1 MOL     -0.660116
     68 H28        -5.7490    1.0110   -1.5830 hn        1 MOL      0.245927
     69 H29        -8.0540   -0.3860   -2.5300 h1        1 MOL      0.087953
     70 H30        -6.3810   -0.1960   -4.0540 hc        1 MOL      0.049930
     71 H31        -6.3910   -1.8900   -3.6200 hc        1 MOL      0.049930
     72 N7         -6.6280   -2.0320   -0.0340 n         1 MOL      0.004340
     73 C23        -6.6170   -3.2110    0.8370 c3        1 MOL     -0.112174
     74 C24        -5.3870   -4.1430    0.6800 c         1 MOL      0.495327
     75 O13        -5.5500   -5.3310    0.9890 o         1 MOL     -0.570590
     76 H32        -6.1110   -1.2550    0.3200 hn        1 MOL      0.121988
     77 H33        -7.5590   -3.7450    0.7560 h1        1 MOL      0.078041
     78 H34        -6.4960   -2.8740    1.8680 h1        1 MOL      0.078041
     79 N8         -4.3050   -3.8030   -0.0430 n         1 MOL      0.010179
     80 C25        -3.1580   -4.6430   -0.3020 c3        1 MOL     -0.641830
     81 C26        -1.9390   -3.7880   -0.0500 c         1 MOL      0.936416
     82 O14        -1.8790   -2.6170   -0.3840 o         1 MOL     -0.777009
     83 C27        -3.2250   -5.1780   -1.7220 c3        1 MOL      0.536139
     84 C28        -4.3550   -6.1300   -1.9690 c3        1 MOL     -0.532152
     85 O15        -3.2210   -4.0900   -2.6610 oh        1 MOL     -0.676735
     86 H35        -4.4000   -2.9160   -0.5050 hn        1 MOL      0.023549
     87 H36        -3.1760   -5.4270    0.4500 h1        1 MOL      0.185804
     88 H37        -2.3210   -5.6990   -2.0210 h1        1 MOL      0.001311
     89 H38        -3.6920   -3.3130   -2.3510 ho        1 MOL      0.485492
     90 H39        -4.3230   -7.0090   -1.3230 hc        1 MOL      0.139581
     91 H40        -5.3690   -5.7500   -1.8910 hc        1 MOL      0.139581
     92 H41        -4.3350   -6.5100   -2.9940 hc        1 MOL      0.139581
     93 N9         -1.0340   -4.4000    0.6870 n         1 MOL     -0.615741
     94 C29         0.1770   -3.6310    1.1920 c3        1 MOL     -0.119212
     95 C30         1.3970   -3.8660    0.3680 c         1 MOL      0.524811
     96 O16         1.7310   -5.0270    0.0790 o         1 MOL     -0.575156
     97 C31         0.5240   -3.8730    2.7330 c3        1 MOL      0.213398
     98 C32        -0.7410   -3.8980    3.6140 c3        1 MOL      0.175486
     99 C33         1.3950   -2.6840    3.2190 c3        1 MOL     -0.535064
    100 C34        -0.3970   -4.3540    5.0400 c3        1 MOL     -0.204743
    101 H42        -1.1640   -5.3270    1.0650 hn        1 MOL      0.338122
    102 H43        -0.0560   -2.5740    1.1260 h1        1 MOL      0.172350
    103 H44         1.1320   -4.7740    2.8800 hc        1 MOL      0.009814
    104 H45        -1.4610   -4.5910    3.1860 hc        1 MOL     -0.028171
    105 H46        -1.2240   -2.9180    3.6460 hc        1 MOL     -0.028171
    106 H47         2.1950   -2.4640    2.5090 hc        1 MOL      0.100890
    107 H48         0.8400   -1.7560    3.3440 hc        1 MOL      0.100890
    108 H49         1.9140   -3.0960    4.0850 hc        1 MOL      0.100890
    109 H50         0.5940   -4.7930    5.1040 hc        1 MOL      0.044076
    110 H51        -0.5280   -3.5770    5.7960 hc        1 MOL      0.044076
    111 H52        -1.0740   -5.1940    5.2090 hc        1 MOL      0.044076
    112 N10         1.9990   -2.7910   -0.1080 n         1 MOL     -0.043738
    113 C35         3.2450   -2.9330   -0.9590 c3        1 MOL      0.007658
    114 C36         4.5460   -2.7720   -0.1610 c         1 MOL      0.244380
    115 O17         4.5410   -2.2680    0.9500 o         1 MOL     -0.307952
    116 C37         3.3080   -2.0140   -2.2300 c3        1 MOL      0.145567
    117 C38         1.9590   -1.7220   -2.8990 c3        1 MOL     -0.297372
    118 O18         3.8090   -0.7460   -1.8970 oh        1 MOL     -0.438720
    119 H53         1.6490   -1.8550    0.0410 hn        1 MOL      0.166174
    120 H54         3.2720   -3.9230   -1.4220 h1        1 MOL      0.069441
    121 H55         4.0470   -2.3360   -2.9660 h1        1 MOL      0.015018
    122 H56         3.5640   -0.2240   -2.6610 ho        1 MOL      0.368703
    123 H57         1.4730   -0.9280   -2.3390 hc        1 MOL      0.082426
    124 H58         1.9980   -1.5710   -3.9800 hc        1 MOL      0.082426
    125 H59         1.4080   -2.6340   -2.6700 hc        1 MOL      0.082426
    126 N11         5.7270   -3.2580   -0.6160 n         1 MOL     -0.330205
    127 C39         6.9840   -3.1060    0.1850 c3        1 MOL      0.009106
    128 C40         7.4030   -1.6290    0.2380 c         1 MOL      0.481416
    129 O19         8.2380   -1.3080    1.0540 o         1 MOL     -0.514082
    130 C41         8.2020   -3.7670   -0.4560 c3        1 MOL      0.316366
    131 C42         8.0670   -5.2300   -0.6360 c3        1 MOL     -0.295108
    132 O20         8.5290   -3.1690   -1.6730 oh        1 MOL     -0.667985
    133 H60         5.8880   -3.6120   -1.5450 hn        1 MOL      0.290730
    134 H61         6.9430   -3.2910    1.2570 h1        1 MOL      0.089571
    135 H62         8.9990   -3.5480    0.2540 h1        1 MOL      0.008331
    136 H63         9.4010   -3.5120   -1.8840 ho        1 MOL      0.427802
    137 H64         7.8990   -5.7950    0.2850 hc        1 MOL      0.076105
    138 H65         7.1730   -5.4130   -1.2270 hc        1 MOL      0.076105
    139 H66         8.9600   -5.5450   -1.1670 hc        1 MOL      0.076105
    140 N12         6.8130   -0.7810   -0.6480 n         1 MOL     -0.262252
    141 C43         6.9630    0.6530   -0.5490 c3        1 MOL     -0.151472
    142 C44         6.0240    1.2470    0.5020 c         1 MOL      0.423816
    143 O21         6.4910    2.1210    1.2600 o         1 MOL     -0.510317
    144 C45         6.8690    1.1930   -1.9440 c3        1 MOL      0.010844
    145 C46         7.2470    2.7060   -1.9210 c3        1 MOL      0.009818
    146 C47         7.6870    3.1580   -3.2800 c3        1 MOL      0.195560
    147 C48         8.9470    2.5610   -3.9200 c3        1 MOL     -0.091769
    148 N13         9.2640    3.4140   -5.1270 n4        1 MOL     -0.211568
    149 H67         6.2800   -1.2090   -1.3970 hn        1 MOL      0.196154
    150 H68         7.9860    0.8060   -0.1890 h1        1 MOL      0.122548
    151 H69         5.8850    1.0130   -2.3840 hc        1 MOL     -0.004887
    152 H70         7.6240    0.6490   -2.5040 hc        1 MOL     -0.004887
    153 H71         8.1090    2.8360   -1.2680 hc        1 MOL      0.011484
    154 H72         6.4330    3.3360   -1.5690 hc        1 MOL      0.011484
    155 H73         7.9950    4.1910   -3.1000 hc        1 MOL     -0.042565
    156 H74         6.8360    3.1710   -3.9600 hc        1 MOL     -0.042565
    157 H75         8.6910    1.5280   -4.1740 hx        1 MOL      0.116773
    158 H76         9.7620    2.7100   -3.2040 hx        1 MOL      0.116773
    159 H77         8.7320    3.1260   -5.9440 hn        1 MOL      0.252944
    160 H78         9.0770    4.4070   -5.0490 hn        1 MOL      0.252944
    161 H79        10.2640    3.3130   -5.2620 hn        1 MOL      0.252944
    162 N14         4.7730    0.7870    0.5720 n         1 MOL      0.032915
    163 C49         3.9110    1.2220    1.6000 c3        1 MOL     -0.481887
    164 C50         4.3480    0.9130    3.0260 c         1 MOL      0.473321
    165 O22         4.3360    1.8040    3.8670 o         1 MOL     -0.531652
    166 C51         2.4550    0.7910    1.2270 c3        1 MOL      0.167461
    167 C52         1.9490    1.4440   -0.0990 c3        1 MOL     -0.062603
    168 C53         0.4420    0.9330   -0.3430 c         1 MOL      0.688911
    169 O23         0.1540   -0.2650   -0.2280 o         1 MOL     -0.759298
    170 O24        -0.3900    1.7660   -0.7060 o         1 MOL     -0.759298
    171 H80         4.4630    0.1240   -0.1240 hn        1 MOL      0.075976
    172 H81         3.8130    2.3150    1.5570 h1        1 MOL      0.166731
    173 H82         1.7000    1.0580    1.9690 hc        1 MOL      0.030821
    174 H83         2.3710   -0.2970    1.2050 hc        1 MOL      0.030821
    175 H84         2.6110    1.0820   -0.8760 hc        1 MOL     -0.039828
    176 H85         2.0930    2.5220   -0.0090 hc        1 MOL     -0.039828
    177 N15         4.9280   -0.2410    3.2410 n         1 MOL      0.024310
    178 C54         5.5300   -0.7330    4.4670 c3        1 MOL     -0.410112
    179 H86         4.7780   -0.7590    5.2550 h1        1 MOL      0.141479
    180 H87         5.9190   -1.7370    4.3030 h1        1 MOL      0.141479
    181 H88         6.3430   -0.0710    4.7630 h1        1 MOL      0.141479
    182 H89         4.9150   -0.8420    2.4280 hn        1 MOL      0.095299
    183 Ca1        -2.0860   -0.1350   -1.5000 Ca        1 MOL      1.793620
    184 O25        -0.7080    0.7900   -3.8590 oh        1 MOL     -0.752633
    185 H90        -0.8590    1.7280   -3.7410 ho        1 MOL      0.358995
    186 H91        -0.2260    0.7260   -4.6870 ho        1 MOL      0.358995
    187 O26        -1.4350   -2.1510   -3.4180 oh        1 MOL     -0.752633
    188 H92        -0.7180   -2.3130   -4.0280 ho        1 MOL      0.358995
    189 H93        -1.8650   -2.9890   -3.3160 ho        1 MOL      0.358995
@<TRIPOS>BOND
     1    1    2 1   
     2    1    4 1   
     3    1    5 1   
     4    1    6 1   
     5    2    3 2   
     6    2    7 1   
     7    7    8 1   
     8    7   15 1   
     9    8    9 1   
    10    8   11 1   
    11    8   16 1   
    12    9   10 2   
    13    9   19 1   
    14   11   12 1   
    15   11   17 1   
    16   11   18 1   
    17   12   13 1   
    18   12   14 1   
    19   19   20 1   
    20   19   28 1   
    21   20   21 1   
    22   20   23 1   
    23   20   29 1   
    24   21   22 2   
    25   21   41 1   
    26   23   24 1   
    27   23   30 1   
    28   23   31 1   
    29   24   25 1   
    30   24   32 1   
    31   24   33 1   
    32   25   26 1   
    33   25   34 1   
    34   25   35 1   
    35   26   27 1   
    36   26   36 1   
    37   26   37 1   
    38   27   38 1   
    39   27   39 1   
    40   27   40 1   
    41   41   42 1   
    42   41   49 1   
    43   42   43 1   
    44   42   45 1   
    45   42   50 1   
    46   43   44 2   
    47   43   53 1   
    48   45   46 1   
    49   45   51 1   
    50   45   52 1   
    51   46   47 1   
    52   46   48 1   
    53   53   54 1   
    54   53   57 1   
    55   54   55 1   
    56   54   58 1   
    57   54   59 1   
    58   55   56 2   
    59   55   60 1   
    60   60   61 1   
    61   60   68 1   
    62   61   62 1   
    63   61   64 1   
    64   61   69 1   
    65   62   63 2   
    66   62   72 1   
    67   64   65 1   
    68   64   70 1   
    69   64   71 1   
    70   65   66 1   
    71   65   67 1   
    72   72   73 1   
    73   72   76 1   
    74   73   74 1   
    75   73   77 1   
    76   73   78 1   
    77   74   75 2   
    78   74   79 1   
    79   79   80 1   
    80   79   86 1   
    81   80   81 1   
    82   80   83 1   
    83   80   87 1   
    84   81   82 2   
    85   81   93 1   
    86   83   84 1   
    87   83   85 1   
    88   83   88 1   
    89   84   90 1   
    90   84   91 1   
    91   84   92 1   
    92   85   89 1   
    93   93   94 1   
    94   93  101 1   
    95   94   95 1   
    96   94   97 1   
    97   94  102 1   
    98   95   96 2   
    99   95  112 1   
   100   97   98 1   
   101   97   99 1   
   102   97  103 1   
   103   98  100 1   
   104   98  104 1   
   105   98  105 1   
   106   99  106 1   
   107   99  107 1   
   108   99  108 1   
   109  100  109 1   
   110  100  110 1   
   111  100  111 1   
   112  112  113 1   
   113  112  119 1   
   114  113  114 1   
   115  113  116 1   
   116  113  120 1   
   117  114  115 2   
   118  114  126 1   
   119  116  117 1   
   120  116  118 1   
   121  116  121 1   
   122  117  123 1   
   123  117  124 1   
   124  117  125 1   
   125  118  122 1   
   126  126  127 1   
   127  126  133 1   
   128  127  128 1   
   129  127  130 1   
   130  127  134 1   
   131  128  129 2   
   132  128  140 1   
   133  130  131 1   
   134  130  132 1   
   135  130  135 1   
   136  131  137 1   
   137  131  138 1   
   138  131  139 1   
   139  132  136 1   
   140  140  141 1   
   141  140  149 1   
   142  141  142 1   
   143  141  144 1   
   144  141  150 1   
   145  142  143 2   
   146  142  162 1   
   147  144  145 1   
   148  144  151 1   
   149  144  152 1   
   150  145  146 1   
   151  145  153 1   
   152  145  154 1   
   153  146  147 1   
   154  146  155 1   
   155  146  156 1   
   156  147  148 1   
   157  147  157 1   
   158  147  158 1   
   159  148  159 1   
   160  148  160 1   
   161  148  161 1   
   162  162  163 1   
   163  162  171 1   
   164  163  164 1   
   165  163  166 1   
   166  163  172 1   
   167  164  165 2   
   168  164  177 1   
   169  166  167 1   
   170  166  173 1   
   171  166  174 1   
   172  167  168 1   
   173  167  175 1   
   174  167  176 1   
   175  168  169 1   
   176  168  170 1   
   177  177  178 1   
   178  177  182 1   
   179  178  179 1   
   180  178  180 1   
   181  178  181 1   
   182  184  185 1   
   183  184  186 1   
   184  187  188 1   
   185  187  189 1   
@<TRIPOS>SUBSTRUCTURE
     1 MOL         1 TEMP              0 ****  ****    0 ROOT
