@<TRIPOS>MOLECULE
MOL
  189   185     1     0     0
SMALL
resp


@<TRIPOS>ATOM
      1 C1          0.1250    2.7330    4.8480 c3        1 MOL     -0.441614
      2 C2         -0.5770    2.4080    3.5830 c         1 MOL      0.621316
      3 O1         -0.1430    2.7800    2.5090 o         1 MOL     -0.579413
      4 H1          1.1440    2.3500    4.8060 hc        1 MOL      0.122772
      5 H2          0.1480    3.8140    4.9830 hc        1 MOL      0.122772
      6 H3         -0.4020    2.2740    5.6840 hc        1 MOL      0.122772
      7 N1         -1.7120    1.7010    3.6020 n         1 MOL     -0.459239
      8 C3         -2.4140    1.3000    2.3970 c3        1 MOL      0.342923
      9 C4         -3.2230    2.4270    1.8000 c         1 MOL      0.219217
     10 O2         -4.4140    2.6710    2.1900 o         1 MOL     -0.488520
     11 C5         -3.3370    0.0720    2.6780 c3        1 MOL     -0.358582
     12 C6         -3.9990   -0.3920    1.4230 c         1 MOL      0.779174
     13 O3         -4.9830   -1.0230    1.6870 o         1 MOL     -0.635364
     14 O4         -3.4830   -0.0910    0.2710 o         1 MOL     -0.635364
     15 H4         -2.0600    1.3080    4.4620 hn        1 MOL      0.268485
     16 H5         -1.6570    0.9720    1.6870 h1        1 MOL     -0.043569
     17 H6         -4.0630    0.2050    3.4820 hc        1 MOL      0.086309
     18 H7         -2.7000   -0.7500    2.9980 hc        1 MOL      0.086309
     19 N2         -2.5140    3.3040    1.0120 n         1 MOL     -0.274934
     20 C7         -2.9000    4.6670    0.6000 c3        1 MOL      0.007604
     21 C8         -3.7010    4.6260   -0.7490 c         1 MOL      0.274859
     22 O5         -4.2980    5.6820   -1.1000 o         1 MOL     -0.541797
     23 C9         -1.6610    5.6110    0.5430 c3        1 MOL      0.208941
     24 C10        -1.8280    7.0880    0.2720 c3        1 MOL     -0.146009
     25 C11        -2.8250    7.7380    1.2100 c3        1 MOL     -0.018207
     26 C12        -2.6740    7.5250    2.6660 c3        1 MOL      0.119948
     27 N3         -3.7670    8.0330    3.5070 n4        1 MOL     -0.529700
     28 H8         -1.5410    3.0460    0.9340 hn        1 MOL      0.255728
     29 H9         -3.6150    5.0470    1.3330 h1        1 MOL      0.096992
     30 H10        -0.8820    5.1520   -0.0530 hc        1 MOL     -0.028370
     31 H11        -1.2450    5.4730    1.5520 hc        1 MOL     -0.028370
     32 H12        -2.1410    7.1700   -0.7620 hc        1 MOL      0.061447
     33 H13        -0.8280    7.4680    0.4900 hc        1 MOL      0.061447
     34 H14        -3.8130    7.3450    0.9640 hc        1 MOL      0.018573
     35 H15        -2.7830    8.8160    1.0240 hc        1 MOL      0.018573
     36 H16        -1.6790    7.8720    2.9400 hx        1 MOL      0.054281
     37 H17        -2.7290    6.4600    2.8800 hx        1 MOL      0.054281
     38 H18        -3.7090    9.0380    3.5200 hn        1 MOL      0.373396
     39 H19        -4.6450    7.7860    3.0910 hn        1 MOL      0.373396
     40 H20        -3.7110    7.6730    4.4540 hn        1 MOL      0.373396
     41 N4         -3.7450    3.5250   -1.4820 n         1 MOL     -0.025032
     42 C13        -4.5950    3.3950   -2.6270 c3        1 MOL      0.028493
     43 C14        -5.8480    2.5290   -2.2620 c         1 MOL      0.432063
     44 O6         -6.7270    2.3400   -3.0640 o         1 MOL     -0.530788
     45 C15        -3.7710    2.9090   -3.8640 c3        1 MOL     -0.226879
     46 C16        -2.7380    1.8020   -3.5820 c         1 MOL      0.755294
     47 O7         -2.8880    1.0880   -2.5300 o         1 MOL     -0.720065
     48 O8         -1.6770    1.7060   -4.2870 o         1 MOL     -0.720065
     49 H21        -3.1330    2.7460   -1.3280 hn        1 MOL      0.109425
     50 H22        -5.0270    4.3820   -2.8110 h1        1 MOL      0.075819
     51 H23        -3.1870    3.7860   -4.1330 hc        1 MOL      0.062389
     52 H24        -4.2940    2.5990   -4.7660 hc        1 MOL      0.062389
     53 N5         -5.9350    2.0380   -1.0260 n         1 MOL     -0.167915
     54 C17        -7.0860    1.4070   -0.3870 c3        1 MOL     -0.174625
     55 C18        -7.3460   -0.0210   -0.8020 c         1 MOL      0.528704
     56 O9         -8.4620   -0.5500   -0.7040 o         1 MOL     -0.617313
     57 H25        -5.1430    2.1550   -0.4030 hn        1 MOL      0.112300
     58 H26        -7.9610    2.0660   -0.4540 h1        1 MOL      0.103907
     59 H27        -6.8600    1.3440    0.6800 h1        1 MOL      0.103907
     60 N6         -6.3420   -0.7370   -1.2500 n         1 MOL     -0.130443
     61 C19        -6.4410   -2.0370   -1.9160 c3        1 MOL     -0.095787
     62 C20        -6.4560   -3.2850   -1.1060 c         1 MOL      0.483379
     63 O10        -6.5540   -4.3390   -1.6520 o         1 MOL     -0.540460
     64 C21        -5.4470   -2.0230   -3.0740 c3        1 MOL     -0.242062
     65 C22        -3.9870   -2.0870   -2.6580 c         1 MOL      0.825911
     66 O11        -3.0190   -1.9370   -3.5000 o         1 MOL     -0.770058
     67 O12        -3.7440   -2.4440   -1.4700 o         1 MOL     -0.770058
     68 H28        -5.3890   -0.4250   -1.1090 hn        1 MOL      0.100901
     69 H29        -7.4170   -2.0300   -2.3950 h1        1 MOL      0.130864
     70 H30        -5.5490   -1.2010   -3.7780 hc        1 MOL      0.079933
     71 H31        -5.7110   -2.9290   -3.6180 hc        1 MOL      0.079933
     72 N7         -6.4230   -3.1290    0.1970 n         1 MOL     -0.280090
     73 C23        -6.2070   -4.1880    1.1900 c3        1 MOL     -0.272307
     74 C24        -4.7920   -4.7080    1.4820 c         1 MOL      0.580151
     75 O13        -4.6540   -5.5810    2.3550 o         1 MOL     -0.585915
     76 H32        -6.3560   -2.1500    0.4500 hn        1 MOL      0.266915
     77 H33        -6.7280   -5.0820    0.8580 h1        1 MOL      0.136863
     78 H34        -6.6380   -3.8470    2.1310 h1        1 MOL      0.136863
     79 N8         -3.7510   -4.1270    0.8730 n         1 MOL     -0.276105
     80 C25        -2.3640   -4.7330    0.9260 c3        1 MOL     -0.192892
     81 C26        -1.2930   -3.7040    0.9490 c         1 MOL      0.744661
     82 O14        -1.4430   -2.6450    0.3560 o         1 MOL     -0.706787
     83 C27        -2.0860   -5.6880   -0.2980 c3        1 MOL      0.581295
     84 C28        -2.6810   -7.0700   -0.2080 c3        1 MOL     -0.323879
     85 O15        -2.4540   -5.1000   -1.4820 oh        1 MOL     -0.676588
     86 H35        -3.8410   -3.3330    0.2520 hn        1 MOL      0.237163
     87 H36        -2.3120   -5.2980    1.8600 h1        1 MOL      0.103157
     88 H37        -1.0530   -6.0260   -0.2230 h1        1 MOL     -0.058787
     89 H38        -3.0310   -4.3560   -1.3080 ho        1 MOL      0.443381
     90 H39        -3.7450   -6.9150    0.0010 hc        1 MOL      0.069080
     91 H40        -2.4830   -7.6440   -1.1120 hc        1 MOL      0.069080
     92 H41        -2.3290   -7.4680    0.7380 hc        1 MOL      0.069080
     93 N9         -0.2300   -3.9480    1.7290 n         1 MOL     -0.719163
     94 C29         0.8690   -3.0440    1.9730 c3        1 MOL      0.323771
     95 C30         2.1530   -3.4390    1.2140 c         1 MOL      0.409466
     96 O16         2.7770   -4.4870    1.3420 o         1 MOL     -0.537114
     97 C31         1.1590   -2.9080    3.4570 c3        1 MOL      0.021305
     98 C32         0.0280   -2.2250    4.2790 c3        1 MOL      0.124310
     99 C33         2.4190   -2.1660    3.7850 c3        1 MOL     -0.216484
    100 C34         0.1480   -2.2480    5.7930 c3        1 MOL     -0.323570
    101 H42        -0.2010   -4.8270    2.2280 hn        1 MOL      0.306038
    102 H43         0.5880   -2.0670    1.5800 h1        1 MOL      0.054456
    103 H44         1.4270   -3.8960    3.8170 hc        1 MOL      0.025258
    104 H45        -0.9310   -2.6370    3.9720 hc        1 MOL     -0.010437
    105 H46        -0.2030   -1.2430    3.8660 hc        1 MOL     -0.010437
    106 H47         3.3000   -2.5620    3.2820 hc        1 MOL      0.040694
    107 H48         2.3200   -1.1120    3.4960 hc        1 MOL      0.040694
    108 H49         2.5850   -2.0900    4.8610 hc        1 MOL      0.040694
    109 H50        -0.7670   -1.8740    6.2420 hc        1 MOL      0.082095
    110 H51         0.3490   -3.2820    6.0850 hc        1 MOL      0.082095
    111 H52         0.9450   -1.5650    6.0740 hc        1 MOL      0.082095
    112 N10         2.7050   -2.4640    0.4270 n         1 MOL     -0.114805
    113 C35         3.9920   -2.6680   -0.3190 c3        1 MOL     -0.124040
    114 C36         5.2880   -2.2370    0.4200 c         1 MOL      0.614302
    115 O17         5.1760   -1.4200    1.3190 o         1 MOL     -0.490675
    116 C37         3.9650   -2.1500   -1.7930 c3        1 MOL      0.388706
    117 C38         2.9800   -2.7510   -2.6800 c3        1 MOL     -0.210712
    118 O18         3.5280   -0.8520   -1.7420 oh        1 MOL     -0.635746
    119 H53         2.0800   -1.7170    0.1400 hn        1 MOL      0.099680
    120 H54         4.1760   -3.7340   -0.4380 h1        1 MOL      0.044537
    121 H55         4.9230   -2.2670   -2.3000 h1        1 MOL     -0.033127
    122 H56         2.6100   -0.8850   -1.4650 ho        1 MOL      0.409044
    123 H57         2.0480   -2.9230   -2.1430 hc        1 MOL      0.048663
    124 H58         2.7000   -2.0910   -3.5020 hc        1 MOL      0.048663
    125 H59         3.3090   -3.7240   -3.0540 hc        1 MOL      0.048663
    126 N11         6.4720   -2.6260   -0.0270 n         1 MOL     -0.443858
    127 C39         7.6450   -1.9400    0.5760 c3        1 MOL     -0.099352
    128 C40         7.5800   -0.4040    0.3680 c         1 MOL      0.244580
    129 O19         8.0500    0.3400    1.2340 o         1 MOL     -0.434076
    130 C41         8.9370   -2.4030   -0.1440 c3        1 MOL      0.329664
    131 C42         9.4130   -3.7070    0.4290 c3        1 MOL     -0.330514
    132 O20         8.8450   -2.5970   -1.5370 oh        1 MOL     -0.586848
    133 H60         6.4590   -3.2860   -0.7930 hn        1 MOL      0.295964
    134 H61         7.8340   -2.2180    1.6170 h1        1 MOL      0.158686
    135 H62         9.8050   -1.7490   -0.0220 h1        1 MOL      0.039164
    136 H63         8.8150   -1.7680   -2.0280 ho        1 MOL      0.350393
    137 H64        10.2510   -4.0710   -0.1690 hc        1 MOL      0.100281
    138 H65         9.7910   -3.6500    1.4480 hc        1 MOL      0.100281
    139 H66         8.5810   -4.4020    0.3350 hc        1 MOL      0.100281
    140 N12         7.0490    0.0230   -0.7790 n         1 MOL     -0.222919
    141 C43         6.9760    1.4570   -1.1350 c3        1 MOL     -0.079090
    142 C44         6.0940    2.1490   -0.1210 c         1 MOL      0.252897
    143 O21         6.5060    3.2020    0.4830 o         1 MOL     -0.505244
    144 C45         6.1890    1.5000   -2.4710 c3        1 MOL     -0.240223
    145 C46         6.0920    2.9480   -3.0830 c3        1 MOL     -0.030481
    146 C47         7.3550    3.3800   -3.8490 c3        1 MOL     -0.152610
    147 C48         7.5600    2.7040   -5.1990 c3        1 MOL      0.137887
    148 N13         8.9620    2.8540   -5.5800 n4        1 MOL     -0.410329
    149 H67         6.8060   -0.6130   -1.5270 hn        1 MOL      0.229542
    150 H68         7.9390    1.9770   -1.1280 h1        1 MOL      0.133577
    151 H69         5.1830    1.1220   -2.3310 hc        1 MOL      0.106589
    152 H70         6.6740    0.8070   -3.1530 hc        1 MOL      0.106589
    153 H71         5.8920    3.6500   -2.2720 hc        1 MOL      0.079896
    154 H72         5.2950    2.9600   -3.8220 hc        1 MOL      0.079896
    155 H73         8.2180    3.2620   -3.1920 hc        1 MOL      0.067434
    156 H74         7.1470    4.4360   -4.0470 hc        1 MOL      0.067434
    157 H75         6.9630    3.1590   -5.9800 hx        1 MOL      0.066133
    158 H76         7.2790    1.6580   -5.0840 hx        1 MOL      0.066133
    159 H77         9.5600    2.3460   -4.9480 hn        1 MOL      0.339509
    160 H78         9.0390    2.4040   -6.4860 hn        1 MOL      0.339509
    161 H79         9.2460    3.8240   -5.5400 hn        1 MOL      0.339509
    162 N14         5.0470    1.4750    0.3110 n         1 MOL      0.630909
    163 C49         4.1460    2.0360    1.2970 c3        1 MOL     -0.793512
    164 C50         4.5690    2.0180    2.7970 c         1 MOL      0.639944
    165 O22         4.2200    2.8360    3.6460 o         1 MOL     -0.581428
    166 C51         2.7070    1.4670    1.1290 c3        1 MOL      0.405652
    167 C52         2.0770    1.7480   -0.2400 c3        1 MOL     -0.276546
    168 C53         0.9230    0.7840   -0.4680 c         1 MOL      0.790526
    169 O23         1.0680   -0.4440   -0.7570 o         1 MOL     -0.691208
    170 O24        -0.2270    1.1820   -0.4610 o         1 MOL     -0.691208
    171 H80         4.7140    0.6480   -0.1520 hn        1 MOL     -0.337221
    172 H81         4.0090    3.1170    1.1610 h1        1 MOL      0.207107
    173 H82         2.0200    1.7540    1.9320 hc        1 MOL     -0.029620
    174 H83         2.6720    0.3830    1.2920 hc        1 MOL     -0.029620
    175 H84         2.8140    1.6920   -1.0430 hc        1 MOL      0.067654
    176 H85         1.8300    2.8050   -0.2160 hc        1 MOL      0.067654
    177 N15         5.4090    1.0870    3.1120 n         1 MOL     -0.172488
    178 C54         6.0510    1.0440    4.4210 c3        1 MOL     -0.242468
    179 H86         7.1290    1.1560    4.3000 h1        1 MOL      0.100955
    180 H87         5.6700    1.8560    5.0400 h1        1 MOL      0.100955
    181 H88         5.8370    0.0880    4.9000 h1        1 MOL      0.100955
    182 H89         5.7250    0.4770    2.3690 hn        1 MOL      0.235697
    183 Ca1        -1.5710   -0.8590   -1.5000 Ca        1 MOL      1.747516
    184 O25         0.1220   -0.2390   -3.4340 oh        1 MOL     -0.858079
    185 H90         0.4500   -0.7130   -4.1960 ho        1 MOL      0.409123
    186 H91        -0.0670    0.6340   -3.7630 ho        1 MOL      0.409123
    187 O26        -0.6440   -3.3270   -2.5080 oh        1 MOL     -0.858079
    188 H92        -1.4680   -3.8110   -2.4650 ho        1 MOL      0.409123
    189 H93        -0.2040   -3.6590   -3.2880 ho        1 MOL      0.409123
@<TRIPOS>BOND
     1    1    2 1   
     2    1    4 1   
     3    1    5 1   
     4    1    6 1   
     5    2    3 2   
     6    2    7 1   
     7    7    8 1   
     8    7   15 1   
     9    8    9 1   
    10    8   11 1   
    11    8   16 1   
    12    9   10 2   
    13    9   19 1   
    14   11   12 1   
    15   11   17 1   
    16   11   18 1   
    17   12   13 1   
    18   12   14 1   
    19   19   20 1   
    20   19   28 1   
    21   20   21 1   
    22   20   23 1   
    23   20   29 1   
    24   21   22 2   
    25   21   41 1   
    26   23   24 1   
    27   23   30 1   
    28   23   31 1   
    29   24   25 1   
    30   24   32 1   
    31   24   33 1   
    32   25   26 1   
    33   25   34 1   
    34   25   35 1   
    35   26   27 1   
    36   26   36 1   
    37   26   37 1   
    38   27   38 1   
    39   27   39 1   
    40   27   40 1   
    41   41   42 1   
    42   41   49 1   
    43   42   43 1   
    44   42   45 1   
    45   42   50 1   
    46   43   44 2   
    47   43   53 1   
    48   45   46 1   
    49   45   51 1   
    50   45   52 1   
    51   46   47 1   
    52   46   48 1   
    53   53   54 1   
    54   53   57 1   
    55   54   55 1   
    56   54   58 1   
    57   54   59 1   
    58   55   56 2   
    59   55   60 1   
    60   60   61 1   
    61   60   68 1   
    62   61   62 1   
    63   61   64 1   
    64   61   69 1   
    65   62   63 2   
    66   62   72 1   
    67   64   65 1   
    68   64   70 1   
    69   64   71 1   
    70   65   66 1   
    71   65   67 1   
    72   72   73 1   
    73   72   76 1   
    74   73   74 1   
    75   73   77 1   
    76   73   78 1   
    77   74   75 2   
    78   74   79 1   
    79   79   80 1   
    80   79   86 1   
    81   80   81 1   
    82   80   83 1   
    83   80   87 1   
    84   81   82 2   
    85   81   93 1   
    86   83   84 1   
    87   83   85 1   
    88   83   88 1   
    89   84   90 1   
    90   84   91 1   
    91   84   92 1   
    92   85   89 1   
    93   93   94 1   
    94   93  101 1   
    95   94   95 1   
    96   94   97 1   
    97   94  102 1   
    98   95   96 2   
    99   95  112 1   
   100   97   98 1   
   101   97   99 1   
   102   97  103 1   
   103   98  100 1   
   104   98  104 1   
   105   98  105 1   
   106   99  106 1   
   107   99  107 1   
   108   99  108 1   
   109  100  109 1   
   110  100  110 1   
   111  100  111 1   
   112  112  113 1   
   113  112  119 1   
   114  113  114 1   
   115  113  116 1   
   116  113  120 1   
   117  114  115 2   
   118  114  126 1   
   119  116  117 1   
   120  116  118 1   
   121  116  121 1   
   122  117  123 1   
   123  117  124 1   
   124  117  125 1   
   125  118  122 1   
   126  126  127 1   
   127  126  133 1   
   128  127  128 1   
   129  127  130 1   
   130  127  134 1   
   131  128  129 2   
   132  128  140 1   
   133  130  131 1   
   134  130  132 1   
   135  130  135 1   
   136  131  137 1   
   137  131  138 1   
   138  131  139 1   
   139  132  136 1   
   140  140  141 1   
   141  140  149 1   
   142  141  142 1   
   143  141  144 1   
   144  141  150 1   
   145  142  143 2   
   146  142  162 1   
   147  144  145 1   
   148  144  151 1   
   149  144  152 1   
   150  145  146 1   
   151  145  153 1   
   152  145  154 1   
   153  146  147 1   
   154  146  155 1   
   155  146  156 1   
   156  147  148 1   
   157  147  157 1   
   158  147  158 1   
   159  148  159 1   
   160  148  160 1   
   161  148  161 1   
   162  162  163 1   
   163  162  171 1   
   164  163  164 1   
   165  163  166 1   
   166  163  172 1   
   167  164  165 2   
   168  164  177 1   
   169  166  167 1   
   170  166  173 1   
   171  166  174 1   
   172  167  168 1   
   173  167  175 1   
   174  167  176 1   
   175  168  169 1   
   176  168  170 1   
   177  177  178 1   
   178  177  182 1   
   179  178  179 1   
   180  178  180 1   
   181  178  181 1   
   182  184  185 1   
   183  184  186 1   
   184  187  188 1   
   185  187  189 1   
@<TRIPOS>SUBSTRUCTURE
     1 MOL         1 TEMP              0 ****  ****    0 ROOT
