@<TRIPOS>MOLECULE
MOL
  189   185     1     0     0
SMALL
resp


@<TRIPOS>ATOM
      1 C1         -0.3070    0.7520    6.4220 c3        1 MOL     -0.207410
      2 C2         -0.5450    0.8400    4.8690 c         1 MOL      0.650406
      3 O1          0.3030    1.1950    4.0590 o         1 MOL     -0.600320
      4 H1         -0.9300    1.4910    6.9270 hc        1 MOL      0.056098
      5 H2         -0.5700   -0.2450    6.7750 hc        1 MOL      0.056098
      6 H3          0.7420    0.9510    6.6420 hc        1 MOL      0.056098
      7 N1         -1.8410    0.7350    4.4840 n         1 MOL     -0.562716
      8 C3         -2.3760    0.9970    3.1140 c3        1 MOL      0.171493
      9 C4         -2.6360    2.5090    2.9500 c         1 MOL      0.432518
     10 O2         -3.6410    3.1190    3.4140 o         1 MOL     -0.544387
     11 C5         -3.5620    0.1650    2.9590 c3        1 MOL     -0.094077
     12 C6         -4.2220    0.3020    1.5340 c         1 MOL      0.539459
     13 O3         -5.1190   -0.5100    1.2650 o         1 MOL     -0.535386
     14 O4         -3.7280    1.0630    0.6900 o         1 MOL     -0.535386
     15 H4         -2.5170    0.3490    5.1300 hn        1 MOL      0.305391
     16 H5         -1.6620    0.6760    2.3530 h1        1 MOL     -0.033015
     17 H6         -4.2430    0.4850    3.7340 hc        1 MOL      0.016734
     18 H7         -3.3200   -0.8780    3.1710 hc        1 MOL      0.016734
     19 N2         -1.6690    3.1650    2.2890 n         1 MOL     -0.134318
     20 C7         -1.5150    4.6270    2.0720 c3        1 MOL     -0.203672
     21 C8         -2.6400    5.2150    1.2090 c         1 MOL      0.728920
     22 O5         -2.8690    6.3940    1.2960 o         1 MOL     -0.584110
     23 C9         -0.0610    4.8730    1.5960 c3        1 MOL     -0.120595
     24 C10         0.1450    4.7710    0.0880 c3        1 MOL      0.103876
     25 C11         1.6350    5.0360   -0.2930 c3        1 MOL     -0.201432
     26 C12         1.8430    4.7200   -1.7680 c3        1 MOL      0.328754
     27 N3          3.2790    5.0290   -2.2350 n4        1 MOL     -0.501318
     28 H8         -1.0290    2.5800    1.7790 hn        1 MOL      0.222567
     29 H9         -1.6340    5.0990    3.0450 h1        1 MOL      0.114046
     30 H10         0.5480    4.0930    2.0590 hc        1 MOL      0.073241
     31 H11         0.1580    5.8840    1.9540 hc        1 MOL      0.073241
     32 H12        -0.5170    5.3780   -0.5220 hc        1 MOL      0.018875
     33 H13        -0.0730    3.7330   -0.1710 hc        1 MOL      0.018875
     34 H14         2.2800    4.3690    0.2790 hc        1 MOL      0.038933
     35 H15         1.8890    6.0730   -0.0580 hc        1 MOL      0.038933
     36 H16         1.1580    5.2510   -2.4300 hx        1 MOL      0.009024
     37 H17         1.5770    3.6710   -1.9000 hx        1 MOL      0.009024
     38 H18         3.5180    5.9800   -1.9890 hn        1 MOL      0.342809
     39 H19         3.9030    4.3310   -1.8640 hn        1 MOL      0.342809
     40 H20         3.3170    4.9650   -3.2450 hn        1 MOL      0.342809
     41 N4         -3.2900    4.3740    0.3810 n         1 MOL     -0.509813
     42 C13        -4.1590    4.8920   -0.6760 c3        1 MOL      0.093835
     43 C14        -5.4890    4.1290   -0.7560 c         1 MOL      0.452005
     44 O6         -6.3240    4.5090   -1.6070 o         1 MOL     -0.508853
     45 C15        -3.3460    4.9140   -1.9340 c3        1 MOL     -0.147253
     46 C16        -2.5520    3.6370   -2.2870 c         1 MOL      0.909826
     47 O7         -1.6340    3.7350   -3.0900 o         1 MOL     -0.760284
     48 O8         -2.9390    2.5150   -1.7800 o         1 MOL     -0.760284
     49 H21        -2.8930    3.4580    0.2040 hn        1 MOL     -0.006337
     50 H22        -4.3900    5.9510   -0.5190 h1        1 MOL      0.093375
     51 H23        -2.6260    5.7260   -1.8000 hc        1 MOL      0.030148
     52 H24        -3.9690    5.2070   -2.7740 hc        1 MOL      0.030148
     53 N5         -5.7240    3.0780    0.0930 n         1 MOL     -0.219305
     54 C17        -7.0390    2.4170    0.2360 c3        1 MOL     -0.254252
     55 C18        -7.3590    1.5610   -0.9880 c         1 MOL      0.655287
     56 O9         -8.3700    1.7350   -1.6330 o         1 MOL     -0.572400
     57 H25        -4.9570    2.6180    0.5670 hn        1 MOL      0.290685
     58 H26        -7.9050    3.0270    0.5160 h1        1 MOL      0.113387
     59 H27        -6.9380    1.6400    1.0020 h1        1 MOL      0.113387
     60 N6         -6.7280    0.4140   -1.2070 n         1 MOL     -0.235022
     61 C19        -7.1270   -0.7090   -2.0420 c3        1 MOL      0.000045
     62 C20        -7.2780   -2.0530   -1.3070 c         1 MOL      0.399435
     63 O10        -7.5780   -3.0250   -1.9630 o         1 MOL     -0.521630
     64 C21        -6.0780   -0.8120   -3.1740 c3        1 MOL     -0.119029
     65 C22        -4.6000   -0.7810   -2.7710 c         1 MOL      0.676368
     66 O11        -3.7640   -0.0480   -3.3450 o         1 MOL     -0.693347
     67 O12        -4.1900   -1.4920   -1.8800 o         1 MOL     -0.693347
     68 H28        -5.9600    0.2210   -0.5960 hn        1 MOL      0.028330
     69 H29        -8.1090   -0.5770   -2.4930 h1        1 MOL      0.112363
     70 H30        -6.2760   -0.0160   -3.8800 hc        1 MOL      0.049608
     71 H31        -6.2760   -1.7570   -3.6980 hc        1 MOL      0.049608
     72 N7         -6.8600   -2.2210   -0.0550 n         1 MOL     -0.188466
     73 C23        -6.9520   -3.4940    0.6650 c3        1 MOL     -0.129425
     74 C24        -5.6170   -4.3700    0.6360 c         1 MOL      0.444232
     75 O13        -5.6410   -5.6060    0.8640 o         1 MOL     -0.544038
     76 H32        -6.4530   -1.4370    0.4390 hn        1 MOL      0.183496
     77 H33        -7.7510   -4.1850    0.3830 h1        1 MOL      0.092653
     78 H34        -7.1020   -3.1160    1.6740 h1        1 MOL      0.092653
     79 N8         -4.5780   -3.7420    0.0150 n         1 MOL     -0.090812
     80 C25        -3.2350   -4.3930   -0.2960 c3        1 MOL     -0.118021
     81 C26        -2.0030   -3.5560    0.1320 c         1 MOL      0.524340
     82 O14        -1.9800   -2.3400    0.1650 o         1 MOL     -0.612481
     83 C27        -3.0820   -4.8800   -1.7870 c3        1 MOL      0.449102
     84 C28        -4.2990   -5.6870   -2.3180 c3        1 MOL     -0.500670
     85 O15        -2.8670   -3.7880   -2.6430 oh        1 MOL     -0.681869
     86 H35        -4.7570   -2.7870   -0.2690 hn        1 MOL      0.069367
     87 H36        -3.1740   -5.3430    0.2260 h1        1 MOL      0.042863
     88 H37        -2.1830   -5.4870   -1.8270 h1        1 MOL      0.003178
     89 H38        -3.4140   -3.0500   -2.3740 ho        1 MOL      0.476110
     90 H39        -5.1700   -5.0370   -2.3390 hc        1 MOL      0.137351
     91 H40        -4.1060   -6.1160   -3.3040 hc        1 MOL      0.137351
     92 H41        -4.5770   -6.5570   -1.7130 hc        1 MOL      0.137351
     93 N9         -0.9080   -4.2160    0.2760 n         1 MOL     -0.432315
     94 C29         0.3510   -3.6670    0.8790 c3        1 MOL      0.045757
     95 C30         1.5940   -3.9360   -0.0200 c         1 MOL      0.427914
     96 O16         2.0490   -5.0690   -0.2700 o         1 MOL     -0.522174
     97 C31         0.6850   -4.1720    2.3120 c3        1 MOL     -0.041976
     98 C32        -0.4770   -3.8650    3.2890 c3        1 MOL      0.031430
     99 C33         2.0320   -3.7080    2.9100 c3        1 MOL     -0.069427
    100 C34        -0.6950   -2.3840    3.6590 c3        1 MOL      0.018277
    101 H42        -0.9340   -5.1810   -0.0130 hn        1 MOL      0.286861
    102 H43         0.2170   -2.5920    1.0010 h1        1 MOL      0.102751
    103 H44         0.8120   -5.2390    2.1410 hc        1 MOL      0.038364
    104 H45        -0.2350   -4.4510    4.1770 hc        1 MOL      0.001093
    105 H46        -1.4460   -4.3150    3.0720 hc        1 MOL      0.001093
    106 H47         2.8500   -4.2980    2.5040 hc        1 MOL      0.014421
    107 H48         2.1590   -2.6260    2.7770 hc        1 MOL      0.014421
    108 H49         2.0270   -3.8410    3.9910 hc        1 MOL      0.014421
    109 H50        -1.4020   -2.4210    4.4850 hc        1 MOL      0.007011
    110 H51         0.2040   -1.8750    3.9760 hc        1 MOL      0.007011
    111 H52        -1.0300   -1.8430    2.7740 hc        1 MOL      0.007011
    112 N10         2.1420   -2.8870   -0.6350 n         1 MOL     -0.198363
    113 C35         3.3100   -2.8730   -1.5520 c3        1 MOL      0.048122
    114 C36         4.6770   -2.6100   -0.8650 c         1 MOL      0.281209
    115 O17         4.7060   -2.4890    0.3590 o         1 MOL     -0.316574
    116 C37         3.1260   -1.8070   -2.6760 c3        1 MOL      0.304679
    117 C38         2.0770   -2.1500   -3.7170 c3        1 MOL     -0.386113
    118 O18         2.7690   -0.5270   -2.1450 oh        1 MOL     -0.638663
    119 H53         1.7520   -1.9840   -0.4390 hn        1 MOL      0.131662
    120 H54         3.5190   -3.7850   -2.1000 h1        1 MOL      0.060598
    121 H55         4.0830   -1.6390   -3.1620 h1        1 MOL      0.006988
    122 H56         1.8860   -0.5650   -1.7820 ho        1 MOL      0.383213
    123 H57         2.3460   -3.0510   -4.2560 hc        1 MOL      0.102854
    124 H58         1.1070   -2.3500   -3.2590 hc        1 MOL      0.102854
    125 H59         2.0800   -1.2910   -4.3910 hc        1 MOL      0.102854
    126 N11         5.8400   -2.6910   -1.5630 n         1 MOL     -0.265195
    127 C39         7.1970   -2.5340   -0.9700 c3        1 MOL     -0.047121
    128 C40         7.2430   -1.3050   -0.0390 c         1 MOL      0.316268
    129 O19         7.6400   -1.3840    1.1220 o         1 MOL     -0.448150
    130 C41         8.2340   -2.2870   -2.0570 c3        1 MOL      0.115145
    131 C42         8.5350   -3.5020   -2.8020 c3        1 MOL     -0.205738
    132 O20         7.8530   -1.3210   -3.0280 oh        1 MOL     -0.642192
    133 H60         5.8390   -2.8960   -2.5460 hn        1 MOL      0.249006
    134 H61         7.3550   -3.4310   -0.3780 h1        1 MOL      0.150379
    135 H62         9.1750   -1.9680   -1.6190 h1        1 MOL      0.088664
    136 H63         8.5860   -1.2780   -3.6410 ho        1 MOL      0.427840
    137 H64         8.8440   -4.2570   -2.0810 hc        1 MOL      0.070960
    138 H65         7.6050   -3.9550   -3.1740 hc        1 MOL      0.070960
    139 H66         9.3080   -3.4630   -3.5700 hc        1 MOL      0.070960
    140 N12         6.8740   -0.1430   -0.5400 n         1 MOL     -0.255762
    141 C43         6.7450    1.1210    0.2940 c3        1 MOL      0.048024
    142 C44         5.8270    1.1650    1.4720 c         1 MOL      0.446609
    143 O21         6.1920    1.7170    2.5020 o         1 MOL     -0.523260
    144 C45         6.4200    2.2880   -0.6670 c3        1 MOL     -0.385435
    145 C46         7.3010    2.4490   -1.9000 c3        1 MOL      0.096281
    146 C47         8.7210    2.9160   -1.4640 c3        1 MOL     -0.072827
    147 C48         9.2330    3.4690   -2.7870 c3        1 MOL     -0.016815
    148 N13        10.4710    4.2350   -2.5760 n4        1 MOL     -0.079851
    149 H67         6.4490   -0.0480   -1.4550 hn        1 MOL      0.313118
    150 H68         7.6700    1.3580    0.8240 h1        1 MOL      0.079558
    151 H69         6.3800    3.2740   -0.2240 hc        1 MOL      0.098795
    152 H70         5.4260    2.0910   -1.0690 hc        1 MOL      0.098795
    153 H71         6.8450    3.1690   -2.5840 hc        1 MOL     -0.003536
    154 H72         7.3010    1.5230   -2.4900 hc        1 MOL     -0.003536
    155 H73         9.3620    2.0870   -1.1660 hc        1 MOL      0.082467
    156 H74         8.5860    3.7790   -0.7980 hc        1 MOL      0.082467
    157 H75         8.5470    4.1610   -3.2820 hx        1 MOL      0.069158
    158 H76         9.5210    2.6260   -3.4200 hx        1 MOL      0.069158
    159 H77        10.9150    4.1080   -1.6760 hn        1 MOL      0.212791
    160 H78        11.1520    4.0080   -3.2860 hn        1 MOL      0.212791
    161 H79        10.3290    5.2410   -2.6250 hn        1 MOL      0.212791
    162 N14         4.6840    0.5080    1.4740 n         1 MOL     -0.210719
    163 C49         3.7290    0.3220    2.5110 c3        1 MOL     -0.087630
    164 C50         4.2380   -0.7270    3.5490 c         1 MOL      0.591145
    165 O22         4.0260   -0.4720    4.7440 o         1 MOL     -0.566856
    166 C51         2.3500   -0.0180    1.9080 c3        1 MOL     -0.067169
    167 C52         1.7590    1.1710    1.0890 c3        1 MOL      0.249233
    168 C53         0.4830    0.7060    0.3800 c         1 MOL      0.676062
    169 O23         0.4990   -0.3140   -0.3080 o         1 MOL     -0.684004
    170 O24        -0.6000    1.2630    0.4440 o         1 MOL     -0.684004
    171 H80         4.5240    0.0140    0.6060 hn        1 MOL      0.127720
    172 H81         3.7090    1.2280    3.1030 h1        1 MOL      0.112061
    173 H82         1.6500   -0.3150    2.6970 hc        1 MOL      0.051634
    174 H83         2.4340   -0.8890    1.2530 hc        1 MOL      0.051634
    175 H84         2.3940    1.6110    0.3190 hc        1 MOL     -0.097720
    176 H85         1.5380    2.0360    1.7160 hc        1 MOL     -0.097720
    177 N15         4.9470   -1.7770    3.0950 n         1 MOL     -0.182310
    178 C54         5.8630   -2.5690    3.9530 c3        1 MOL     -0.226867
    179 H86         6.7790   -2.7830    3.4040 h1        1 MOL      0.095386
    180 H87         6.1020   -2.0000    4.8520 h1        1 MOL      0.095386
    181 H88         5.3800   -3.5060    4.2330 h1        1 MOL      0.095386
    182 H89         5.0040   -1.8810    2.0920 hn        1 MOL      0.146239
    183 Ca1        -2.1090    0.0720   -1.1350 Ca        1 MOL      1.784572
    184 O25        -0.5990    1.1510   -2.9460 oh        1 MOL     -0.825209
    185 H90        -1.0100    1.9840   -3.2020 ho        1 MOL      0.384388
    186 H91         0.1090    1.0340   -3.5660 ho        1 MOL      0.384388
    187 O26        -1.1710   -1.6480   -2.8210 oh        1 MOL     -0.825209
    188 H92        -0.8780   -1.4990   -3.7180 ho        1 MOL      0.384388
    189 H93        -1.6090   -2.5000   -2.8400 ho        1 MOL      0.384388
@<TRIPOS>BOND
     1    1    2 1   
     2    1    4 1   
     3    1    5 1   
     4    1    6 1   
     5    2    3 2   
     6    2    7 1   
     7    7    8 1   
     8    7   15 1   
     9    8    9 1   
    10    8   11 1   
    11    8   16 1   
    12    9   10 2   
    13    9   19 1   
    14   11   12 1   
    15   11   17 1   
    16   11   18 1   
    17   12   13 1   
    18   12   14 1   
    19   19   20 1   
    20   19   28 1   
    21   20   21 1   
    22   20   23 1   
    23   20   29 1   
    24   21   22 2   
    25   21   41 1   
    26   23   24 1   
    27   23   30 1   
    28   23   31 1   
    29   24   25 1   
    30   24   32 1   
    31   24   33 1   
    32   25   26 1   
    33   25   34 1   
    34   25   35 1   
    35   26   27 1   
    36   26   36 1   
    37   26   37 1   
    38   27   38 1   
    39   27   39 1   
    40   27   40 1   
    41   41   42 1   
    42   41   49 1   
    43   42   43 1   
    44   42   45 1   
    45   42   50 1   
    46   43   44 2   
    47   43   53 1   
    48   45   46 1   
    49   45   51 1   
    50   45   52 1   
    51   46   47 1   
    52   46   48 1   
    53   53   54 1   
    54   53   57 1   
    55   54   55 1   
    56   54   58 1   
    57   54   59 1   
    58   55   56 2   
    59   55   60 1   
    60   60   61 1   
    61   60   68 1   
    62   61   62 1   
    63   61   64 1   
    64   61   69 1   
    65   62   63 2   
    66   62   72 1   
    67   64   65 1   
    68   64   70 1   
    69   64   71 1   
    70   65   66 1   
    71   65   67 1   
    72   72   73 1   
    73   72   76 1   
    74   73   74 1   
    75   73   77 1   
    76   73   78 1   
    77   74   75 2   
    78   74   79 1   
    79   79   80 1   
    80   79   86 1   
    81   80   81 1   
    82   80   83 1   
    83   80   87 1   
    84   81   82 2   
    85   81   93 1   
    86   83   84 1   
    87   83   85 1   
    88   83   88 1   
    89   84   90 1   
    90   84   91 1   
    91   84   92 1   
    92   85   89 1   
    93   93   94 1   
    94   93  101 1   
    95   94   95 1   
    96   94   97 1   
    97   94  102 1   
    98   95   96 2   
    99   95  112 1   
   100   97   98 1   
   101   97   99 1   
   102   97  103 1   
   103   98  100 1   
   104   98  104 1   
   105   98  105 1   
   106   99  106 1   
   107   99  107 1   
   108   99  108 1   
   109  100  109 1   
   110  100  110 1   
   111  100  111 1   
   112  112  113 1   
   113  112  119 1   
   114  113  114 1   
   115  113  116 1   
   116  113  120 1   
   117  114  115 2   
   118  114  126 1   
   119  116  117 1   
   120  116  118 1   
   121  116  121 1   
   122  117  123 1   
   123  117  124 1   
   124  117  125 1   
   125  118  122 1   
   126  126  127 1   
   127  126  133 1   
   128  127  128 1   
   129  127  130 1   
   130  127  134 1   
   131  128  129 2   
   132  128  140 1   
   133  130  131 1   
   134  130  132 1   
   135  130  135 1   
   136  131  137 1   
   137  131  138 1   
   138  131  139 1   
   139  132  136 1   
   140  140  141 1   
   141  140  149 1   
   142  141  142 1   
   143  141  144 1   
   144  141  150 1   
   145  142  143 2   
   146  142  162 1   
   147  144  145 1   
   148  144  151 1   
   149  144  152 1   
   150  145  146 1   
   151  145  153 1   
   152  145  154 1   
   153  146  147 1   
   154  146  155 1   
   155  146  156 1   
   156  147  148 1   
   157  147  157 1   
   158  147  158 1   
   159  148  159 1   
   160  148  160 1   
   161  148  161 1   
   162  162  163 1   
   163  162  171 1   
   164  163  164 1   
   165  163  166 1   
   166  163  172 1   
   167  164  165 2   
   168  164  177 1   
   169  166  167 1   
   170  166  173 1   
   171  166  174 1   
   172  167  168 1   
   173  167  175 1   
   174  167  176 1   
   175  168  169 1   
   176  168  170 1   
   177  177  178 1   
   178  177  182 1   
   179  178  179 1   
   180  178  180 1   
   181  178  181 1   
   182  184  185 1   
   183  184  186 1   
   184  187  188 1   
   185  187  189 1   
@<TRIPOS>SUBSTRUCTURE
     1 MOL         1 TEMP              0 ****  ****    0 ROOT
