@<TRIPOS>MOLECULE
MOL
  186   183     1     0     0
SMALL
resp


@<TRIPOS>ATOM
      1 C1          0.7730   -2.6220    6.2060 c3        1 MOL     -0.405757
      2 C2          1.2660   -2.6630    4.7310 c         1 MOL      0.772418
      3 O1          0.5810   -3.2430    3.8440 o         1 MOL     -0.610826
      4 H1         -0.1150   -1.9930    6.2740 hc        1 MOL      0.097495
      5 H2          0.5290   -3.6320    6.5360 hc        1 MOL      0.097495
      6 H3          1.5580   -2.2120    6.8410 hc        1 MOL      0.097495
      7 N1          2.4390   -2.0750    4.4250 n         1 MOL     -0.718520
      8 C3          2.9520   -1.8200    3.0590 c3        1 MOL      0.163095
      9 C4          3.3300   -3.1870    2.4660 c         1 MOL      0.664890
     10 O2          4.2040   -3.9280    2.9270 o         1 MOL     -0.619076
     11 C5          4.0410   -0.8090    3.1650 c3        1 MOL     -0.168799
     12 C6          4.6090   -0.4410    1.7400 c         1 MOL      0.801263
     13 O3          5.6510    0.2440    1.6370 o         1 MOL     -0.743325
     14 O4          3.9800   -0.9130    0.7640 o         1 MOL     -0.743325
     15 H4          2.9570   -1.6480    5.1810 hn        1 MOL      0.335811
     16 H5          2.1000   -1.3330    2.5800 h1        1 MOL      0.068922
     17 H6          4.8250   -1.1720    3.8300 hc        1 MOL      0.032125
     18 H7          3.6210    0.0960    3.5960 hc        1 MOL      0.032125
     19 N2          2.6530   -3.5430    1.3460 n         1 MOL     -0.229856
     20 C7          2.5760   -4.9520    0.7580 c3        1 MOL      0.002692
     21 C8          3.6210   -5.0300   -0.4400 c         1 MOL      0.319155
     22 O5          4.2850   -6.0660   -0.6070 o         1 MOL     -0.581828
     23 C9          1.1440   -5.3790    0.3480 c3        1 MOL      0.191581
     24 C10         0.3130   -5.7260    1.6010 c3        1 MOL     -0.004418
     25 C11         1.1350   -6.4480   -0.7050 c3        1 MOL     -0.319382
     26 C12         0.3040   -7.2110    2.1040 c3        1 MOL     -0.115138
     27 H8          2.0510   -2.8340    0.9610 hn        1 MOL      0.050477
     28 H9          2.8530   -5.6580    1.5490 h1        1 MOL      0.072413
     29 H10         0.7230   -4.5000   -0.1290 hc        1 MOL      0.009080
     30 H11        -0.7080   -5.3700    1.4800 hc        1 MOL      0.023384
     31 H12         0.7030   -5.1160    2.4160 hc        1 MOL      0.023384
     32 H13         1.6570   -6.0720   -1.5820 hc        1 MOL      0.072435
     33 H14         1.7070   -7.2760   -0.2770 hc        1 MOL      0.072435
     34 H15         0.1280   -6.8520   -0.8020 hc        1 MOL      0.072435
     35 H16        -0.5390   -7.3380    2.7810 hc        1 MOL      0.014053
     36 H17        -0.0230   -7.8680    1.2950 hc        1 MOL      0.014053
     37 H18         1.2150   -7.6300    2.5300 hc        1 MOL      0.014053
     38 N3          3.9190   -3.9880   -1.1840 n         1 MOL     -0.083977
     39 C13         4.9590   -3.9720   -2.2090 c3        1 MOL      0.112538
     40 C14         6.1630   -3.0950   -1.8500 c         1 MOL      0.374725
     41 O6          7.0750   -3.0610   -2.6290 o         1 MOL     -0.531427
     42 C15         4.3390   -3.6140   -3.5210 c3        1 MOL     -0.281847
     43 C16         3.4940   -2.3220   -3.5240 c         1 MOL      0.755627
     44 O7          3.2410   -1.6160   -2.4670 o         1 MOL     -0.688952
     45 O8          2.8000   -2.1080   -4.5430 o         1 MOL     -0.688952
     46 H19         3.4400   -3.1190   -0.9920 hn        1 MOL      0.090494
     47 H20         5.3890   -4.9690   -2.3760 h1        1 MOL      0.080896
     48 H21         3.7190   -4.4590   -3.8040 hc        1 MOL      0.067563
     49 H22         5.1350   -3.4780   -4.2610 hc        1 MOL      0.067563
     50 N4          6.1730   -2.4570   -0.6790 n         1 MOL     -0.134777
     51 C17         7.3890   -1.9280   -0.0520 c3        1 MOL     -0.246651
     52 C18         7.7780   -0.5760   -0.7290 c         1 MOL      0.570600
     53 O9          8.9240   -0.1400   -0.5680 o         1 MOL     -0.605473
     54 H23         5.3320   -2.4090   -0.1160 hn        1 MOL      0.137731
     55 H24         8.1040   -2.7360   -0.2140 h1        1 MOL      0.119509
     56 H25         7.2740   -1.7790    1.0280 h1        1 MOL      0.119509
     57 N5          6.8150    0.1260   -1.3830 n         1 MOL     -0.255228
     58 C19         7.0220    1.4730   -1.9100 c3        1 MOL     -0.019734
     59 C20         7.1150    2.6800   -0.9480 c         1 MOL      0.498922
     60 O10         7.3740    3.8060   -1.3330 o         1 MOL     -0.552556
     61 C21         6.0770    1.7750   -3.0550 c3        1 MOL     -0.283975
     62 C22         4.6140    1.8890   -2.7040 c         1 MOL      0.781133
     63 O11         4.2310    1.6150   -1.5740 o         1 MOL     -0.724703
     64 O12         3.7500    2.1180   -3.5840 o         1 MOL     -0.724703
     65 H26         5.8740   -0.1870   -1.1970 hn        1 MOL      0.130796
     66 H27         8.0520    1.4730   -2.2730 h1        1 MOL      0.088402
     67 H28         6.1470    0.9900   -3.8260 hc        1 MOL      0.081754
     68 H29         6.4180    2.6890   -3.5440 hc        1 MOL      0.081754
     69 N6          6.9500    2.3650    0.3780 n         1 MOL     -0.304543
     70 C23         6.8870    3.3430    1.4520 c3        1 MOL     -0.408932
     71 C24         5.5030    3.9550    1.8310 c         1 MOL      0.566874
     72 O13         5.4730    4.6180    2.8680 o         1 MOL     -0.582876
     73 H30         6.7970    1.4210    0.6830 hn        1 MOL      0.361420
     74 H31         7.5820    4.1770    1.3470 h1        1 MOL      0.164066
     75 H32         7.0820    2.7260    2.3260 h1        1 MOL      0.164066
     76 N7          4.4380    3.7270    1.0070 n         1 MOL     -0.179871
     77 C25         3.1250    4.2720    1.2150 c3        1 MOL     -0.041030
     78 C26         2.1200    3.1270    1.3890 c         1 MOL      0.704532
     79 O14         2.4130    1.9470    1.0920 o         1 MOL     -0.716157
     80 C27         2.6890    5.2100    0.0760 c3        1 MOL      0.142250
     81 C28         3.4360    6.5470    0.1350 c3        1 MOL     -0.325645
     82 C29         2.9130    7.5730   -0.8700 c         1 MOL      0.562292
     83 N8          3.5210    7.6910   -1.9700 n         1 MOL     -0.608125
     84 O15         1.8720    8.2830   -0.6980 o         1 MOL     -0.587111
     85 H33         4.5770    3.1690    0.1770 hn        1 MOL      0.194565
     86 H34         3.1910    4.8360    2.1470 h1        1 MOL      0.045081
     87 H35         1.6170    5.3910    0.0370 hc        1 MOL      0.024928
     88 H36         2.9350    4.7260   -0.8760 hc        1 MOL      0.024928
     89 H37         4.4840    6.3970   -0.1240 hc        1 MOL      0.082898
     90 H38         3.4430    6.9690    1.1430 hc        1 MOL      0.082898
     91 H39         4.4360    7.2540   -1.9930 hn        1 MOL      0.318904
     92 H40         3.3010    8.3980   -2.6580 hn        1 MOL      0.318904
     93 N9          0.9650    3.4580    1.9070 n         1 MOL     -0.514726
     94 C30        -0.1870    2.5090    2.0210 c3        1 MOL      0.146253
     95 C31        -1.3050    3.0240    1.1380 c         1 MOL      0.283824
     96 O16        -1.7030    4.1760    1.2650 o         1 MOL     -0.552199
     97 C32        -0.6520    2.2930    3.5150 c3        1 MOL      0.401376
     98 C33        -1.6700    1.2090    3.5740 c3        1 MOL     -0.364965
     99 C34         0.4650    1.9590    4.4270 c3        1 MOL     -0.364965
    100 H41         0.7920    4.4590    1.8510 hn        1 MOL      0.260081
    101 H42         0.1780    1.6080    1.5270 h1        1 MOL      0.002441
    102 H43        -1.0990    3.2150    3.8910 hc        1 MOL     -0.058949
    103 H44        -1.1000    0.2820    3.4740 hc        1 MOL      0.074791
    104 H45        -2.1510    1.3070    4.5440 hc        1 MOL      0.074791
    105 H46        -2.3910    1.2280    2.7530 hc        1 MOL      0.074791
    106 H47         0.0380    1.7130    5.3940 hc        1 MOL      0.074791
    107 H48         1.0260    1.0860    4.0790 hc        1 MOL      0.074791
    108 H49         1.1890    2.7750    4.3860 hc        1 MOL      0.074791
    109 N10        -1.7640    2.2400    0.2250 n         1 MOL     -0.032519
    110 C35        -2.9390    2.4780   -0.6670 c3        1 MOL      0.099085
    111 C36        -4.3530    2.2310    0.0060 c         1 MOL      0.462092
    112 O17        -4.3940    1.5010    0.9970 o         1 MOL     -0.426706
    113 C37        -2.6710    1.6500   -1.9620 c3        1 MOL     -0.510627
    114 C38        -3.5960    1.7690   -3.0670 c         1 MOL      0.901410
    115 N11        -4.0060    2.8970   -3.4690 n         1 MOL     -0.851954
    116 O18        -3.9900    0.7880   -3.6740 o         1 MOL     -0.603006
    117 H50        -1.3440    1.3190    0.1890 hn        1 MOL      0.121002
    118 H51        -3.0850    3.5150   -0.9570 h1        1 MOL      0.011230
    119 H52        -2.5640    0.5910   -1.7390 hc        1 MOL      0.157290
    120 H53        -1.6600    1.8860   -2.2680 hc        1 MOL      0.157290
    121 H54        -3.8100    3.7280   -2.9280 hn        1 MOL      0.369640
    122 H55        -4.6340    2.9620   -4.2500 hn        1 MOL      0.369640
    123 N12        -5.4900    2.6040   -0.6240 n         1 MOL     -0.536457
    124 C39        -6.8550    2.1330   -0.2250 c3        1 MOL      0.234298
    125 C40        -6.8920    0.6130   -0.2400 c         1 MOL      0.757725
    126 O19        -7.3690    0.0210    0.7300 o         1 MOL     -0.553571
    127 C41        -8.0250    2.7570   -1.0990 c3        1 MOL     -0.178668
    128 C42        -9.2460    2.3150   -0.3540 ca        1 MOL      0.038167
    129 C43        -9.6250    2.7400    0.9280 ca        1 MOL     -0.215590
    130 C44       -10.0760    1.3390   -0.9640 ca        1 MOL     -0.215590
    131 C45       -10.8190    2.3030    1.4860 ca        1 MOL     -0.168978
    132 C46       -11.2400    0.7920   -0.4210 ca        1 MOL     -0.168978
    133 C47       -11.6370    1.3420    0.8350 ca        1 MOL      0.269174
    134 O20       -12.8090    0.8260    1.3830 oh        1 MOL     -0.541695
    135 H56        -5.4700    3.2460   -1.4060 hn        1 MOL      0.240655
    136 H57        -6.9710    2.3780    0.8350 h1        1 MOL      0.027346
    137 H58        -7.9400    2.3930   -2.1250 hc        1 MOL      0.070810
    138 H59        -8.0110    3.8390   -1.0120 hc        1 MOL      0.070810
    139 H60        -9.0070    3.5020    1.3970 ha        1 MOL      0.144143
    140 H61        -9.8200    0.8820   -1.9040 ha        1 MOL      0.144143
    141 H62       -11.1480    2.6170    2.4640 ha        1 MOL      0.130199
    142 H63       -11.8950    0.1560   -0.9830 ha        1 MOL      0.130199
    143 H64       -13.2430    0.1580    0.8540 ho        1 MOL      0.392186
    144 N13        -6.3170   -0.0240   -1.2890 n         1 MOL     -0.513064
    145 C48        -6.4160   -1.4890   -1.3500 c3        1 MOL     -0.333597
    146 C49        -5.5520   -2.2390   -0.1970 c         1 MOL      0.545855
    147 O21        -5.7860   -3.3930    0.1610 o         1 MOL     -0.512783
    148 C50        -6.0200   -1.7820   -2.8440 c3        1 MOL      0.554938
    149 C51        -6.6080   -3.1320   -3.2750 c3        1 MOL     -0.318032
    150 C52        -6.1170   -3.5500   -4.6850 c         1 MOL      0.702832
    151 O22        -6.5030   -4.6160   -5.2520 o         1 MOL     -0.739434
    152 O23        -5.4700   -2.6850   -5.3400 o         1 MOL     -0.739434
    153 H65        -5.9020    0.4900   -2.0440 hn        1 MOL      0.245736
    154 H66        -7.4700   -1.6760   -1.1840 h1        1 MOL      0.123845
    155 H67        -4.9440   -1.8960   -2.9620 hc        1 MOL     -0.072089
    156 H68        -6.4150   -1.0360   -3.5320 hc        1 MOL     -0.072089
    157 H69        -7.7010   -3.0800   -3.2530 hc        1 MOL      0.018311
    158 H70        -6.3160   -3.8960   -2.5640 hc        1 MOL      0.018311
    159 N14        -4.5770   -1.4960    0.3570 n         1 MOL     -0.267236
    160 C53        -3.6180   -2.0360    1.3740 c3        1 MOL     -0.207944
    161 C54        -4.1780   -1.9300    2.7940 c         1 MOL      0.448798
    162 O24        -3.8670   -2.7120    3.7240 o         1 MOL     -0.548599
    163 C55        -2.2500   -1.3590    1.3210 c3        1 MOL      0.109965
    164 C56        -1.4050   -2.0010    0.2600 c3        1 MOL      0.118702
    165 C57        -0.0700   -1.2610    0.0160 c         1 MOL      0.462747
    166 O25         0.9290   -1.9600   -0.1590 o         1 MOL     -0.591492
    167 O26        -0.0640   -0.0510   -0.0360 o         1 MOL     -0.591492
    168 H71        -4.5460   -0.5460    0.0210 hn        1 MOL      0.114448
    169 H72        -3.4300   -3.1000    1.1970 h1        1 MOL      0.145740
    170 H73        -1.7620   -1.5160    2.2770 hc        1 MOL      0.037194
    171 H74        -2.3580   -0.2830    1.1920 hc        1 MOL      0.037194
    172 H75        -1.9540   -2.0140   -0.6720 hc        1 MOL     -0.015692
    173 H76        -1.2510   -3.0590    0.4960 hc        1 MOL     -0.015692
    174 N15        -4.8420   -0.7880    3.0220 n         1 MOL     -0.110244
    175 C58        -5.4950   -0.3660    4.2240 c3        1 MOL     -0.111431
    176 H77        -6.3120    0.3110    3.9740 h1        1 MOL      0.052190
    177 H78        -5.8920   -1.2360    4.7470 h1        1 MOL      0.052190
    178 H79        -4.7800    0.1490    4.8650 h1        1 MOL      0.052190
    179 H80        -4.7890   -0.0920    2.3010 hn        1 MOL      0.129277
    180 Ca1         2.3480    0.1900   -0.8310 Ca        1 MOL      1.749838
    181 O27         1.4690    2.2920   -2.1100 oh        1 MOL     -0.953867
    182 H81         0.9120    1.9760   -2.8280 ho        1 MOL      0.442817
    183 H82         2.3430    2.3560   -2.4840 ho        1 MOL      0.442817
    184 O28         0.8240   -0.2140   -3.2900 oh        1 MOL     -0.953867
    185 H83         1.3350   -0.7520   -3.8910 ho        1 MOL      0.442817
    186 H84        -0.0910   -0.4160   -3.4830 ho        1 MOL      0.442817
@<TRIPOS>BOND
     1    1    2 1   
     2    1    4 1   
     3    1    5 1   
     4    1    6 1   
     5    2    3 2   
     6    2    7 1   
     7    7    8 1   
     8    7   15 1   
     9    8    9 1   
    10    8   11 1   
    11    8   16 1   
    12    9   10 2   
    13    9   19 1   
    14   11   12 1   
    15   11   17 1   
    16   11   18 1   
    17   12   13 1   
    18   12   14 1   
    19   19   20 1   
    20   19   27 1   
    21   20   21 1   
    22   20   23 1   
    23   20   28 1   
    24   21   22 2   
    25   21   38 1   
    26   23   24 1   
    27   23   25 1   
    28   23   29 1   
    29   24   26 1   
    30   24   30 1   
    31   24   31 1   
    32   25   32 1   
    33   25   33 1   
    34   25   34 1   
    35   26   35 1   
    36   26   36 1   
    37   26   37 1   
    38   38   39 1   
    39   38   46 1   
    40   39   40 1   
    41   39   42 1   
    42   39   47 1   
    43   40   41 2   
    44   40   50 1   
    45   42   43 1   
    46   42   48 1   
    47   42   49 1   
    48   43   44 1   
    49   43   45 1   
    50   50   51 1   
    51   50   54 1   
    52   51   52 1   
    53   51   55 1   
    54   51   56 1   
    55   52   53 2   
    56   52   57 1   
    57   57   58 1   
    58   57   65 1   
    59   58   59 1   
    60   58   61 1   
    61   58   66 1   
    62   59   60 2   
    63   59   69 1   
    64   61   62 1   
    65   61   67 1   
    66   61   68 1   
    67   62   63 1   
    68   62   64 1   
    69   69   70 1   
    70   69   73 1   
    71   70   71 1   
    72   70   74 1   
    73   70   75 1   
    74   71   72 2   
    75   71   76 1   
    76   76   77 1   
    77   76   85 1   
    78   77   78 1   
    79   77   80 1   
    80   77   86 1   
    81   78   79 2   
    82   78   93 1   
    83   80   81 1   
    84   80   87 1   
    85   80   88 1   
    86   81   82 1   
    87   81   89 1   
    88   81   90 1   
    89   82   83 1   
    90   82   84 2   
    91   83   91 1   
    92   83   92 1   
    93   93   94 1   
    94   93  100 1   
    95   94   95 1   
    96   94   97 1   
    97   94  101 1   
    98   95   96 2   
    99   95  109 1   
   100   97   98 1   
   101   97   99 1   
   102   97  102 1   
   103   98  103 1   
   104   98  104 1   
   105   98  105 1   
   106   99  106 1   
   107   99  107 1   
   108   99  108 1   
   109  109  110 1   
   110  109  117 1   
   111  110  111 1   
   112  110  113 1   
   113  110  118 1   
   114  111  112 2   
   115  111  123 1   
   116  113  114 1   
   117  113  119 1   
   118  113  120 1   
   119  114  115 1   
   120  114  116 2   
   121  115  121 1   
   122  115  122 1   
   123  123  124 1   
   124  123  135 1   
   125  124  125 1   
   126  124  127 1   
   127  124  136 1   
   128  125  126 2   
   129  125  144 1   
   130  127  128 1   
   131  127  137 1   
   132  127  138 1   
   133  128  129 ar  
   134  128  130 ar  
   135  129  131 ar  
   136  129  139 1   
   137  130  132 ar  
   138  130  140 1   
   139  131  133 ar  
   140  131  141 1   
   141  132  133 ar  
   142  132  142 1   
   143  133  134 1   
   144  134  143 1   
   145  144  145 1   
   146  144  153 1   
   147  145  146 1   
   148  145  148 1   
   149  145  154 1   
   150  146  147 2   
   151  146  159 1   
   152  148  149 1   
   153  148  155 1   
   154  148  156 1   
   155  149  150 1   
   156  149  157 1   
   157  149  158 1   
   158  150  151 1   
   159  150  152 1   
   160  159  160 1   
   161  159  168 1   
   162  160  161 1   
   163  160  163 1   
   164  160  169 1   
   165  161  162 2   
   166  161  174 1   
   167  163  164 1   
   168  163  170 1   
   169  163  171 1   
   170  164  165 1   
   171  164  172 1   
   172  164  173 1   
   173  165  166 1   
   174  165  167 1   
   175  174  175 1   
   176  174  179 1   
   177  175  176 1   
   178  175  177 1   
   179  175  178 1   
   180  181  182 1   
   181  181  183 1   
   182  184  185 1   
   183  184  186 1   
@<TRIPOS>SUBSTRUCTURE
     1 MOL         1 TEMP              0 ****  ****    0 ROOT
