@<TRIPOS>MOLECULE
MOL
  189   185     1     0     0
SMALL
resp


@<TRIPOS>ATOM
      1 C1         -0.2290    0.5850    6.4740 c3        1 MOL     -0.228748
      2 C2         -0.4010    0.5530    4.9540 c         1 MOL      0.794970
      3 O1          0.4690    1.0520    4.2440 o         1 MOL     -0.608389
      4 H1         -0.7490    1.4510    6.8800 hc        1 MOL      0.054919
      5 H2         -0.6470   -0.3250    6.9060 hc        1 MOL      0.054919
      6 H3          0.8310    0.6500    6.7180 hc        1 MOL      0.054919
      7 N1         -1.6090    0.1610    4.4300 n         1 MOL     -0.656535
      8 C3         -2.0600    0.5880    3.0920 c3        1 MOL     -0.027704
      9 C4         -2.2090    2.1290    3.0770 c         1 MOL      0.649203
     10 O2         -2.8960    2.7000    3.9000 o         1 MOL     -0.569398
     11 C5         -3.4210   -0.0010    2.6570 c3        1 MOL     -0.009840
     12 C6         -3.9950    0.4350    1.3170 c         1 MOL      0.702662
     13 O3         -3.2780    0.8400    0.4390 o         1 MOL     -0.646093
     14 O4         -5.2100    0.3650    1.2540 o         1 MOL     -0.646093
     15 H4         -2.2250   -0.4230    4.9780 hn        1 MOL      0.334017
     16 H5         -1.3370    0.2040    2.3820 h1        1 MOL      0.061180
     17 H6         -4.2170    0.1650    3.3760 hc        1 MOL      0.004802
     18 H7         -3.3590   -1.0890    2.7220 hc        1 MOL      0.004802
     19 N2         -1.5900    2.8530    2.0620 n         1 MOL     -0.435943
     20 C7         -1.7360    4.3570    1.8060 c3        1 MOL      0.051192
     21 C8         -2.9360    4.6730    0.9170 c         1 MOL      0.428822
     22 O5         -3.5750    5.7030    1.0840 o         1 MOL     -0.588231
     23 C9         -0.4350    4.8200    1.2250 c3        1 MOL     -0.053520
     24 C10        -0.3110    6.2930    1.1040 c3        1 MOL     -0.153824
     25 C11         1.0960    6.7720    0.6770 c3        1 MOL     -0.071409
     26 C12         1.0820    8.3130    0.5590 c3        1 MOL      0.158555
     27 N3          2.2320    8.8510   -0.2210 n4        1 MOL     -0.400020
     28 H8         -1.2130    2.2260    1.3660 hn        1 MOL      0.229586
     29 H9         -1.7960    4.8710    2.7620 h1        1 MOL      0.067119
     30 H10        -0.4940    4.4200    0.2130 hc        1 MOL      0.096031
     31 H11         0.3510    4.3620    1.8200 hc        1 MOL      0.096031
     32 H12        -0.5390    6.8080    2.0350 hc        1 MOL      0.071033
     33 H13        -1.0830    6.6940    0.4420 hc        1 MOL      0.071033
     34 H14         1.3410    6.2100   -0.2300 hc        1 MOL      0.032481
     35 H15         1.8940    6.4130    1.3300 hc        1 MOL      0.032481
     36 H16         1.1870    8.6670    1.5800 hx        1 MOL      0.059756
     37 H17         0.1710    8.7950    0.1950 hx        1 MOL      0.059756
     38 H18         2.1430    8.7430   -1.2240 hn        1 MOL      0.330394
     39 H19         2.2960    9.8250    0.0450 hn        1 MOL      0.330394
     40 H20         3.0810    8.4190    0.0950 hn        1 MOL      0.330394
     41 N4         -3.1770    3.8280   -0.0410 n         1 MOL      0.070352
     42 C13        -4.1690    4.0830   -1.1090 c3        1 MOL     -0.278731
     43 C14        -5.6430    3.8140   -0.9220 c         1 MOL      0.489743
     44 O6         -6.4710    4.3200   -1.6900 o         1 MOL     -0.515685
     45 C15        -3.7790    3.3640   -2.3770 c3        1 MOL     -0.081887
     46 C16        -2.3020    3.2720   -2.6410 c         1 MOL      0.702432
     47 O7         -1.6310    2.3260   -2.1610 o         1 MOL     -0.663624
     48 O8         -1.7890    4.0570   -3.4740 o         1 MOL     -0.663624
     49 H21        -2.4630    3.1340   -0.1600 hn        1 MOL     -0.049921
     50 H22        -3.9620    5.1340   -1.2830 h1        1 MOL      0.114962
     51 H23        -4.1570    3.9770   -3.1990 hc        1 MOL      0.067720
     52 H24        -4.2070    2.3690   -2.3380 hc        1 MOL      0.067720
     53 N5         -6.0070    2.8920    0.0050 n         1 MOL     -0.168089
     54 C17        -7.3660    2.4700    0.0800 c3        1 MOL     -0.066443
     55 C18        -7.8560    1.3840   -0.8390 c         1 MOL      0.601564
     56 O9         -8.8950    1.5360   -1.5090 o         1 MOL     -0.580886
     57 H25        -5.2620    2.5190    0.5760 hn        1 MOL      0.175457
     58 H26        -8.0230    3.3330   -0.0550 h1        1 MOL      0.048746
     59 H27        -7.6330    2.2440    1.1100 h1        1 MOL      0.048746
     60 N6         -7.1230    0.2720   -0.9090 n         1 MOL     -0.465248
     61 C19        -7.2900   -0.8710   -1.8010 c3        1 MOL      0.139241
     62 C20        -7.1000   -2.2290   -0.9790 c         1 MOL      0.356934
     63 O10        -7.4210   -3.2800   -1.5420 o         1 MOL     -0.509341
     64 C21        -6.2080   -0.7210   -2.9210 c3        1 MOL     -0.296742
     65 C22        -4.7490   -0.7560   -2.5460 c         1 MOL      0.912901
     66 O11        -4.2820   -1.4100   -1.6310 o         1 MOL     -0.861253
     67 O12        -3.9180   -0.0010   -3.1910 o         1 MOL     -0.861253
     68 H28        -6.3020    0.2620   -0.3240 hn        1 MOL      0.222912
     69 H29        -8.2750   -0.8110   -2.2540 h1        1 MOL      0.085375
     70 H30        -6.3910    0.2400   -3.3990 hc        1 MOL      0.090670
     71 H31        -6.3390   -1.5650   -3.5900 hc        1 MOL      0.090670
     72 N7         -6.6450   -2.1000    0.2690 n         1 MOL     -0.205996
     73 C23        -6.4920   -3.3010    1.0670 c3        1 MOL     -0.205301
     74 C24        -5.3190   -4.1820    0.6950 c         1 MOL      0.493391
     75 O13        -5.3680   -5.3780    1.0760 o         1 MOL     -0.567623
     76 H32        -6.2920   -1.2030    0.5910 hn        1 MOL      0.188451
     77 H33        -7.4140   -3.8750    0.9490 h1        1 MOL      0.125515
     78 H34        -6.4010   -2.9870    2.1060 h1        1 MOL      0.125515
     79 N8         -4.2800   -3.7050    0.0110 n         1 MOL     -0.208819
     80 C25        -3.0780   -4.4990   -0.3270 c3        1 MOL     -0.155651
     81 C26        -1.9060   -3.6700    0.0570 c         1 MOL      0.574537
     82 O14        -1.8780   -2.4320   -0.0100 o         1 MOL     -0.690553
     83 C27        -3.1360   -5.0560   -1.7680 c3        1 MOL      0.442487
     84 C28        -4.0860   -6.1440   -2.0320 c3        1 MOL     -0.490360
     85 O15        -3.6010   -4.0600   -2.6950 oh        1 MOL     -0.684919
     86 H35        -4.2900   -2.7200   -0.2120 hn        1 MOL      0.285222
     87 H36        -2.9820   -5.4050    0.2610 h1        1 MOL      0.088291
     88 H37        -2.1510   -5.3280   -2.1360 h1        1 MOL      0.004244
     89 H38        -4.2190   -3.4460   -2.2860 ho        1 MOL      0.470243
     90 H39        -4.2580   -6.2470   -3.1040 hc        1 MOL      0.134798
     91 H40        -3.7170   -7.0990   -1.6560 hc        1 MOL      0.134798
     92 H41        -5.0100   -5.8520   -1.5340 hc        1 MOL      0.134798
     93 N9         -0.7750   -4.3130    0.3240 n         1 MOL     -0.514707
     94 C29         0.4010   -3.6840    0.8240 c3        1 MOL      0.070710
     95 C30         1.5440   -3.9800   -0.1880 c         1 MOL      0.451951
     96 O16         1.7540   -5.1420   -0.5460 o         1 MOL     -0.545470
     97 C31         0.6650   -4.0220    2.3030 c3        1 MOL     -0.018088
     98 C32        -0.1530   -3.1930    3.1880 c3        1 MOL      0.211234
     99 C33         2.1700   -4.0770    2.6420 c3        1 MOL     -0.125663
    100 C34         0.0730   -3.4350    4.6610 c3        1 MOL     -0.135152
    101 H42        -0.7460   -5.3170    0.1690 hn        1 MOL      0.288015
    102 H43         0.1430   -2.6230    0.8560 h1        1 MOL      0.190200
    103 H44         0.2740   -5.0110    2.5600 hc        1 MOL      0.015969
    104 H45        -1.2190   -3.3430    3.0090 hc        1 MOL     -0.013379
    105 H46        -0.0420   -2.1230    2.9960 hc        1 MOL     -0.013379
    106 H47         2.7360   -4.7240    1.9690 hc        1 MOL      0.024331
    107 H48         2.6120   -3.0770    2.6310 hc        1 MOL      0.024331
    108 H49         2.3370   -4.5100    3.6180 hc        1 MOL      0.024331
    109 H50        -0.7090   -2.9490    5.2450 hc        1 MOL      0.013472
    110 H51         0.0170   -4.4970    4.8840 hc        1 MOL      0.013472
    111 H52         1.0010   -2.9170    4.9080 hc        1 MOL      0.013472
    112 N10         2.1770   -2.8910   -0.6490 n         1 MOL      0.009047
    113 C35         3.3470   -2.8950   -1.4980 c3        1 MOL     -0.066305
    114 C36         4.6710   -2.7500   -0.7570 c         1 MOL      0.256727
    115 O17         4.6690   -2.4530    0.3900 o         1 MOL     -0.192931
    116 C37         3.2400   -1.7970   -2.5460 c3        1 MOL      0.287757
    117 C38         2.1960   -1.9200   -3.6090 c3        1 MOL     -0.298725
    118 O18         3.2110   -0.5670   -1.8070 oh        1 MOL     -0.647328
    119 H53         1.9080   -1.9960   -0.2790 hn        1 MOL     -0.026856
    120 H54         3.2170   -3.7830   -2.1210 h1        1 MOL      0.051653
    121 H55         4.2660   -1.7810   -2.9050 h1        1 MOL     -0.025314
    122 H56         2.3100   -0.3670   -1.5150 ho        1 MOL      0.414263
    123 H57         1.2150   -2.0640   -3.1590 hc        1 MOL      0.084410
    124 H58         2.2310   -1.0010   -4.1980 hc        1 MOL      0.084410
    125 H59         2.4840   -2.6250   -4.3830 hc        1 MOL      0.084410
    126 N11         5.8510   -2.8410   -1.3930 n         1 MOL     -0.275372
    127 C39         7.1610   -2.5940   -0.8160 c3        1 MOL     -0.243628
    128 C40         7.3660   -1.2670   -0.0340 c         1 MOL      0.271914
    129 O19         7.9820   -1.3000    1.0760 o         1 MOL     -0.444119
    130 C41         8.2520   -2.7060   -1.9340 c3        1 MOL      0.463854
    131 C42         9.6310   -2.4000   -1.3350 c3        1 MOL     -0.302221
    132 O20         8.2450   -3.9580   -2.4710 oh        1 MOL     -0.608800
    133 H60         5.7600   -3.0180   -2.3760 hn        1 MOL      0.228412
    134 H61         7.2690   -3.4170   -0.1180 h1        1 MOL      0.178174
    135 H62         7.9930   -2.0100   -2.7350 h1        1 MOL     -0.064526
    136 H63         7.3520   -4.2780   -2.6050 ho        1 MOL      0.386086
    137 H64         9.7850   -1.3240   -1.3300 hc        1 MOL      0.096587
    138 H65         9.7760   -3.0280   -0.4540 hc        1 MOL      0.096587
    139 H66        10.3890   -2.7320   -2.0570 hc        1 MOL      0.096587
    140 N12         6.9730   -0.1210   -0.5840 n         1 MOL     -0.270502
    141 C43         6.8800    1.1750   -0.0160 c3        1 MOL      0.053079
    142 C44         5.9830    1.1920    1.1860 c         1 MOL      0.376972
    143 O21         6.3850    1.7550    2.1940 o         1 MOL     -0.516877
    144 C45         6.5510    2.2510   -1.0670 c3        1 MOL     -0.272027
    145 C46         7.7620    2.6110   -1.8650 c3        1 MOL      0.332774
    146 C47         7.5000    3.9020   -2.6680 c3        1 MOL      0.078460
    147 C48         8.7810    4.3660   -3.3070 c3        1 MOL     -0.162622
    148 N13         9.2630    3.5190   -4.4410 n4        1 MOL     -0.281983
    149 H67         6.5920   -0.2280   -1.5090 hn        1 MOL      0.291361
    150 H68         7.8480    1.3770    0.4480 h1        1 MOL      0.106029
    151 H69         6.1890    3.1600   -0.5810 hc        1 MOL      0.067893
    152 H70         5.8250    1.9690   -1.8240 hc        1 MOL      0.067893
    153 H71         7.9530    1.7860   -2.5480 hc        1 MOL     -0.095167
    154 H72         8.6050    2.6950   -1.1730 hc        1 MOL     -0.095167
    155 H73         7.1050    4.7460   -2.0980 hc        1 MOL      0.018437
    156 H74         6.6980    3.7490   -3.3880 hc        1 MOL      0.018437
    157 H75         9.5370    4.4420   -2.5290 hx        1 MOL      0.128449
    158 H76         8.5250    5.3470   -3.7250 hx        1 MOL      0.128449
    159 H77         9.2490    2.5470   -4.1750 hn        1 MOL      0.279786
    160 H78         8.7070    3.6390   -5.2760 hn        1 MOL      0.279786
    161 H79        10.2310    3.7410   -4.6330 hn        1 MOL      0.279786
    162 N14         4.8090    0.6240    1.1470 n         1 MOL     -0.201365
    163 C49         3.8510    0.5650    2.2560 c3        1 MOL     -0.141070
    164 C50         4.2640   -0.3960    3.3710 c         1 MOL      0.462172
    165 O22         4.0240   -0.0610    4.5100 o         1 MOL     -0.544615
    166 C51         2.4820    0.0820    1.6970 c3        1 MOL      0.441207
    167 C52         1.7600    1.0910    0.8200 c3        1 MOL     -0.028923
    168 C53         0.5670    0.4770    0.1060 c         1 MOL      0.456827
    169 O23         0.6460   -0.4260   -0.7320 o         1 MOL     -0.581200
    170 O24        -0.5790    0.9610    0.3410 o         1 MOL     -0.581200
    171 H80         4.6100    0.0700    0.3200 hn        1 MOL      0.181034
    172 H81         3.7050    1.5420    2.7290 h1        1 MOL      0.130355
    173 H82         1.8280    0.0350    2.5620 hc        1 MOL     -0.136332
    174 H83         2.6830   -0.8630    1.2010 hc        1 MOL     -0.136332
    175 H84         2.4830    1.4090    0.0630 hc        1 MOL     -0.037253
    176 H85         1.4280    2.0020    1.3100 hc        1 MOL     -0.037253
    177 N15         4.9400   -1.5060    3.0850 n         1 MOL      0.034560
    178 C54         5.5570   -2.4410    3.9810 c3        1 MOL     -0.300971
    179 H86         5.0750   -2.3820    4.9560 h1        1 MOL      0.103083
    180 H87         5.4510   -3.4500    3.5830 h1        1 MOL      0.103083
    181 H88         6.6160   -2.2000    4.0850 h1        1 MOL      0.103083
    182 H89         4.8780   -1.8580    2.1390 hn        1 MOL      0.044797
    183 Ca1        -1.8530   -0.1340   -1.5560 Ca        1 MOL      1.754570
    184 O25        -0.4190    0.1090   -3.9780 oh        1 MOL     -0.835641
    185 H90        -0.6200    0.9170   -4.4540 ho        1 MOL      0.404297
    186 H91        -0.3910   -0.5590   -4.6540 ho        1 MOL      0.404297
    187 O26        -1.5320   -2.3880   -2.9490 oh        1 MOL     -0.835641
    188 H92        -2.1100   -3.1460   -2.9160 ho        1 MOL      0.404297
    189 H93        -1.1270   -2.4360   -3.8240 ho        1 MOL      0.404297
@<TRIPOS>BOND
     1    1    2 1   
     2    1    4 1   
     3    1    5 1   
     4    1    6 1   
     5    2    3 2   
     6    2    7 1   
     7    7    8 1   
     8    7   15 1   
     9    8    9 1   
    10    8   11 1   
    11    8   16 1   
    12    9   10 2   
    13    9   19 1   
    14   11   12 1   
    15   11   17 1   
    16   11   18 1   
    17   12   13 1   
    18   12   14 1   
    19   19   20 1   
    20   19   28 1   
    21   20   21 1   
    22   20   23 1   
    23   20   29 1   
    24   21   22 2   
    25   21   41 1   
    26   23   24 1   
    27   23   30 1   
    28   23   31 1   
    29   24   25 1   
    30   24   32 1   
    31   24   33 1   
    32   25   26 1   
    33   25   34 1   
    34   25   35 1   
    35   26   27 1   
    36   26   36 1   
    37   26   37 1   
    38   27   38 1   
    39   27   39 1   
    40   27   40 1   
    41   41   42 1   
    42   41   49 1   
    43   42   43 1   
    44   42   45 1   
    45   42   50 1   
    46   43   44 2   
    47   43   53 1   
    48   45   46 1   
    49   45   51 1   
    50   45   52 1   
    51   46   47 1   
    52   46   48 1   
    53   53   54 1   
    54   53   57 1   
    55   54   55 1   
    56   54   58 1   
    57   54   59 1   
    58   55   56 2   
    59   55   60 1   
    60   60   61 1   
    61   60   68 1   
    62   61   62 1   
    63   61   64 1   
    64   61   69 1   
    65   62   63 2   
    66   62   72 1   
    67   64   65 1   
    68   64   70 1   
    69   64   71 1   
    70   65   66 1   
    71   65   67 1   
    72   72   73 1   
    73   72   76 1   
    74   73   74 1   
    75   73   77 1   
    76   73   78 1   
    77   74   75 2   
    78   74   79 1   
    79   79   80 1   
    80   79   86 1   
    81   80   81 1   
    82   80   83 1   
    83   80   87 1   
    84   81   82 2   
    85   81   93 1   
    86   83   84 1   
    87   83   85 1   
    88   83   88 1   
    89   84   90 1   
    90   84   91 1   
    91   84   92 1   
    92   85   89 1   
    93   93   94 1   
    94   93  101 1   
    95   94   95 1   
    96   94   97 1   
    97   94  102 1   
    98   95   96 2   
    99   95  112 1   
   100   97   98 1   
   101   97   99 1   
   102   97  103 1   
   103   98  100 1   
   104   98  104 1   
   105   98  105 1   
   106   99  106 1   
   107   99  107 1   
   108   99  108 1   
   109  100  109 1   
   110  100  110 1   
   111  100  111 1   
   112  112  113 1   
   113  112  119 1   
   114  113  114 1   
   115  113  116 1   
   116  113  120 1   
   117  114  115 2   
   118  114  126 1   
   119  116  117 1   
   120  116  118 1   
   121  116  121 1   
   122  117  123 1   
   123  117  124 1   
   124  117  125 1   
   125  118  122 1   
   126  126  127 1   
   127  126  133 1   
   128  127  128 1   
   129  127  130 1   
   130  127  134 1   
   131  128  129 2   
   132  128  140 1   
   133  130  131 1   
   134  130  132 1   
   135  130  135 1   
   136  131  137 1   
   137  131  138 1   
   138  131  139 1   
   139  132  136 1   
   140  140  141 1   
   141  140  149 1   
   142  141  142 1   
   143  141  144 1   
   144  141  150 1   
   145  142  143 2   
   146  142  162 1   
   147  144  145 1   
   148  144  151 1   
   149  144  152 1   
   150  145  146 1   
   151  145  153 1   
   152  145  154 1   
   153  146  147 1   
   154  146  155 1   
   155  146  156 1   
   156  147  148 1   
   157  147  157 1   
   158  147  158 1   
   159  148  159 1   
   160  148  160 1   
   161  148  161 1   
   162  162  163 1   
   163  162  171 1   
   164  163  164 1   
   165  163  166 1   
   166  163  172 1   
   167  164  165 2   
   168  164  177 1   
   169  166  167 1   
   170  166  173 1   
   171  166  174 1   
   172  167  168 1   
   173  167  175 1   
   174  167  176 1   
   175  168  169 1   
   176  168  170 1   
   177  177  178 1   
   178  177  182 1   
   179  178  179 1   
   180  178  180 1   
   181  178  181 1   
   182  184  185 1   
   183  184  186 1   
   184  187  188 1   
   185  187  189 1   
@<TRIPOS>SUBSTRUCTURE
     1 MOL         1 TEMP              0 ****  ****    0 ROOT
