@<TRIPOS>MOLECULE
MOL
  179   176     1     0     0
SMALL
resp


@<TRIPOS>ATOM
      1 C1          0.6780   -4.5920    6.6870 c3        1 MOL     -0.321429
      2 C2         -0.0150   -3.8350    5.4550 c         1 MOL      0.630446
      3 O1         -1.2620   -3.8580    5.2510 o         1 MOL     -0.527342
      4 H1         -0.0910   -5.0330    7.3210 hc        1 MOL      0.089936
      5 H2          1.3310   -5.3790    6.3090 hc        1 MOL      0.089936
      6 H3          1.2640   -3.8810    7.2690 hc        1 MOL      0.089936
      7 N1          0.8730   -3.1950    4.6030 n         1 MOL     -0.555549
      8 C3          0.6270   -2.8130    3.2150 c3        1 MOL      0.044960
      9 C4          0.1720   -3.9770    2.3450 c         1 MOL      0.589786
     10 O2          0.5490   -5.0850    2.5390 o         1 MOL     -0.527674
     11 C5          1.8960   -2.2770    2.6040 c3        1 MOL     -0.088545
     12 C6          1.6390   -1.7460    1.1980 c         1 MOL      0.677565
     13 O3          0.5480   -1.1030    0.9790 o         1 MOL     -0.719586
     14 O4          2.4730   -1.7900    0.2270 o         1 MOL     -0.719586
     15 H4          1.8520   -3.4100    4.7560 hn        1 MOL      0.299744
     16 H5         -0.0410   -1.9530    3.2510 h1        1 MOL      0.065607
     17 H6          2.6180   -3.0950    2.6100 hc        1 MOL      0.034661
     18 H7          2.2310   -1.3720    3.0940 hc        1 MOL      0.034661
     19 N2         -0.5770   -3.7120    1.2650 n         1 MOL     -0.363303
     20 C7         -1.2300   -4.7420    0.4060 c3        1 MOL     -0.118725
     21 C8         -0.3230   -5.3430   -0.6520 c         1 MOL      0.563494
     22 O5         -0.6200   -6.4070   -1.1280 o         1 MOL     -0.588481
     23 C9         -2.4810   -4.1230   -0.2270 c3        1 MOL      0.178661
     24 C10        -3.3590   -5.1110   -1.0000 c3        1 MOL     -0.166501
     25 C11        -4.7080   -4.4930   -1.5200 c3        1 MOL      0.171098
     26 C12        -5.5750   -5.5800   -2.2140 c3        1 MOL     -0.022386
     27 N3         -6.9580   -5.0820   -2.2370 n4        1 MOL     -0.376947
     28 H8         -0.9110   -2.7580    1.2050 hn        1 MOL      0.196306
     29 H9         -1.5230   -5.6200    0.9960 h1        1 MOL      0.121276
     30 H10        -2.1950   -3.3630   -0.9440 hc        1 MOL      0.002176
     31 H11        -3.0690   -3.6840    0.5850 hc        1 MOL      0.002176
     32 H12        -3.5780   -6.0020   -0.4020 hc        1 MOL      0.040034
     33 H13        -2.9240   -5.4600   -1.9430 hc        1 MOL      0.040034
     34 H14        -4.4530   -3.6500   -2.1650 hc        1 MOL      0.003442
     35 H15        -5.1640   -4.1520   -0.5940 hc        1 MOL      0.003442
     36 H16        -5.5390   -6.4880   -1.6120 hx        1 MOL      0.092509
     37 H17        -5.3060   -5.7890   -3.2490 hx        1 MOL      0.092509
     38 H18        -7.6230   -5.7010   -2.6780 hn        1 MOL      0.333180
     39 H19        -7.3360   -4.9830   -1.3100 hn        1 MOL      0.333180
     40 H20        -6.9730   -4.2610   -2.8160 hn        1 MOL      0.333180
     41 N4          0.8450   -4.7800   -0.9470 n         1 MOL     -0.362472
     42 C13         1.8550   -5.4840   -1.7210 c3        1 MOL      0.166507
     43 C14         3.2380   -5.4040   -1.1000 c         1 MOL      0.323986
     44 O6          4.0630   -6.1870   -1.5680 o         1 MOL     -0.531337
     45 C15         1.8660   -4.9260   -3.1680 c3        1 MOL     -0.223078
     46 C16         1.7840   -3.4300   -3.3910 c         1 MOL      0.738996
     47 O7          1.5190   -3.0310   -4.5490 o         1 MOL     -0.693384
     48 O8          1.8550   -2.6380   -2.4110 o         1 MOL     -0.693384
     49 H21         0.9240   -3.8110   -0.6830 hn        1 MOL      0.185478
     50 H22         1.6600   -6.5520   -1.8290 h1        1 MOL      0.088557
     51 H23         1.0030   -5.3710   -3.6520 hc        1 MOL      0.067065
     52 H24         2.6960   -5.3650   -3.7180 hc        1 MOL      0.067065
     53 N5          3.5840   -4.3010   -0.4190 n         1 MOL     -0.018537
     54 C17         4.8080   -4.1650    0.3660 c3        1 MOL     -0.154453
     55 C18         5.7820   -3.0390   -0.0830 c         1 MOL      0.531725
     56 O9          6.9260   -2.9400    0.3930 o         1 MOL     -0.594225
     57 H25         2.8990   -3.5610   -0.3770 hn        1 MOL      0.031164
     58 H26         5.4140   -5.0650    0.2950 h1        1 MOL      0.099116
     59 H27         4.5160   -4.0530    1.4130 h1        1 MOL      0.099116
     60 N6          5.3640   -2.0990   -0.8830 n         1 MOL     -0.281613
     61 C19         6.1140   -1.0090   -1.4350 c3        1 MOL      0.048250
     62 C20         6.4480    0.1590   -0.5090 c         1 MOL      0.207819
     63 O10         6.8520    1.2810   -0.9840 o         1 MOL     -0.383109
     64 C21         5.5720   -0.5260   -2.7090 c3        1 MOL     -0.187872
     65 C22         4.4160    0.4060   -2.6240 c         1 MOL      0.574047
     66 N7          4.0800    1.1830   -3.6050 n         1 MOL     -0.840587
     67 O11         3.6650    0.4440   -1.6490 o         1 MOL     -0.383302
     68 H28         4.3750   -2.0670   -1.0590 hn        1 MOL      0.155196
     69 H29         7.0930   -1.4070   -1.6840 h1        1 MOL      0.142562
     70 H30         5.2750   -1.3900   -3.3130 hc        1 MOL      0.080382
     71 H31         6.4130   -0.0330   -3.1760 hc        1 MOL      0.080382
     72 H32         4.7420    1.2770   -4.3620 hn        1 MOL      0.391902
     73 H33         3.3590    1.8760   -3.4730 hn        1 MOL      0.391902
     74 N8          6.3780   -0.0460    0.8170 n         1 MOL     -0.161049
     75 C23         6.5770    1.0640    1.8690 c3        1 MOL     -0.364709
     76 C24         5.5420    2.2830    1.8150 c         1 MOL      0.599938
     77 O12         5.8280    3.2820    2.4410 o         1 MOL     -0.521188
     78 H34         6.4330   -1.0070    1.1260 hn        1 MOL      0.278844
     79 H35         7.5550    1.5380    1.8760 h1        1 MOL      0.162506
     80 H36         6.5010    0.4300    2.7490 h1        1 MOL      0.162506
     81 N9          4.4270    2.1620    1.0400 n         1 MOL     -0.362676
     82 C25         3.3590    3.1560    1.1290 c3        1 MOL      0.323027
     83 C26         1.9620    2.5520    1.0590 c         1 MOL      0.285682
     84 O13         1.8130    1.5080    0.4440 o         1 MOL     -0.484762
     85 C27         3.3640    4.3360    0.0790 c3        1 MOL     -0.045019
     86 C28         4.7010    5.0810   -0.0640 ca        1 MOL     -0.118238
     87 C29         5.6410    4.5010   -1.0180 ca        1 MOL     -0.027230
     88 C30         4.9490    6.3420    0.5150 ca        1 MOL     -0.027230
     89 C31         6.8270    5.1920   -1.3840 ca        1 MOL     -0.378891
     90 C32         6.1230    7.0380    0.1520 ca        1 MOL     -0.378891
     91 C33         7.1180    6.4280   -0.7170 ca        1 MOL      0.472929
     92 O14         8.2090    7.1930   -0.9970 oh        1 MOL     -0.517250
     93 H37         4.4110    1.3740    0.4030 hn        1 MOL      0.114687
     94 H38         3.3960    3.5510    2.1430 h1        1 MOL     -0.009871
     95 H39         2.6160    5.0680    0.3800 hc        1 MOL      0.029571
     96 H40         3.0510    3.9900   -0.9060 hc        1 MOL      0.029571
     97 H41         5.4020    3.5550   -1.4800 ha        1 MOL      0.103088
     98 H42         4.1600    6.8450    1.0550 ha        1 MOL      0.103088
     99 H43         7.5980    4.7700   -2.0080 ha        1 MOL      0.165652
    100 H44         6.2530    8.0620    0.4550 ha        1 MOL      0.165652
    101 H45         8.3110    7.9440   -0.4030 ho        1 MOL      0.362706
    102 N10         0.9690    3.1140    1.6740 n         1 MOL     -0.321777
    103 C34        -0.3880    2.5890    1.6950 c3        1 MOL     -0.008367
    104 C35        -1.4570    3.5880    1.2270 c         1 MOL      0.360322
    105 O15        -1.5230    4.6810    1.8180 o         1 MOL     -0.528600
    106 C36        -0.8460    2.0250    3.1650 c3        1 MOL     -0.044798
    107 C37         0.1320    1.1280    3.8770 c3        1 MOL      0.210211
    108 C38        -2.1300    1.2120    3.0840 c3        1 MOL     -0.109420
    109 C39        -0.2090    0.7130    5.3560 c3        1 MOL     -0.510233
    110 H46         1.2120    3.8160    2.3600 hn        1 MOL      0.277357
    111 H47        -0.4370    1.7400    1.0090 h1        1 MOL      0.158847
    112 H48        -0.9720    2.8630    3.8520 hc        1 MOL      0.033573
    113 H49         1.1090    1.6150    3.8440 hc        1 MOL     -0.018173
    114 H50         0.4100    0.2450    3.2910 hc        1 MOL     -0.018173
    115 H51        -2.5290    1.0440    4.0870 hc        1 MOL      0.040858
    116 H52        -2.9700    1.6930    2.5750 hc        1 MOL      0.040858
    117 H53        -1.9640    0.2470    2.5930 hc        1 MOL      0.040858
    118 H54         0.7500    0.4250    5.7690 hc        1 MOL      0.133017
    119 H55        -0.7190    1.5870    5.7660 hc        1 MOL      0.133017
    120 H56        -0.8260   -0.1800    5.2040 hc        1 MOL      0.133017
    121 N11        -2.0930    3.2940    0.1180 n         1 MOL     -0.088852
    122 C40        -3.0520    4.1450   -0.5490 c3        1 MOL      0.028824
    123 C41        -4.5180    4.0620    0.0810 c         1 MOL      0.380795
    124 O16        -4.7810    3.3420    1.0340 o         1 MOL     -0.342299
    125 C42        -3.1170    3.7260   -2.0250 c3        1 MOL     -0.161868
    126 O17        -4.2410    2.9370   -2.3780 oh        1 MOL     -0.415041
    127 H57        -1.9450    2.3670   -0.2480 hn        1 MOL      0.061611
    128 H58        -2.7200    5.1820   -0.4700 h1        1 MOL      0.087908
    129 H59        -2.2890    3.0870   -2.3050 h1        1 MOL      0.110213
    130 H60        -3.1070    4.5900   -2.7020 h1        1 MOL      0.110213
    131 H61        -4.0960    2.7630   -3.3090 ho        1 MOL      0.381176
    132 N12        -5.5400    4.8370   -0.4390 n         1 MOL     -0.400692
    133 C43        -6.9250    4.7610    0.0500 c3        1 MOL      0.179616
    134 C44        -7.6620    3.5020   -0.3980 c         1 MOL      0.335769
    135 O18        -8.7460    3.2590    0.1780 o         1 MOL     -0.529613
    136 C45        -7.6820    5.9590   -0.3440 c3        1 MOL     -0.319853
    137 H62        -5.3650    5.5830   -1.0920 hn        1 MOL      0.277593
    138 H63        -6.8930    4.7220    1.1380 h1        1 MOL      0.086864
    139 H64        -8.7570    5.8700   -0.1570 hc        1 MOL      0.095583
    140 H65        -7.3520    6.8470    0.2070 hc        1 MOL      0.095583
    141 H66        -7.6640    6.1880   -1.4160 hc        1 MOL      0.095583
    142 N13        -7.1350    2.8150   -1.3870 n         1 MOL     -0.022637
    143 C46        -7.6880    1.5380   -1.9420 c3        1 MOL      0.011505
    144 C47        -6.8450    0.3270   -1.2710 c         1 MOL      0.512192
    145 O19        -7.2770   -0.8410   -1.2940 o         1 MOL     -0.596241
    146 C48        -7.6070    1.5890   -3.4820 c3        1 MOL     -0.181346
    147 H67        -6.3710    3.2320   -1.9000 hn        1 MOL      0.080551
    148 H68        -8.7150    1.4420   -1.5860 h1        1 MOL      0.102277
    149 H69        -8.1600    2.4970   -3.7310 hc        1 MOL      0.058167
    150 H70        -6.5770    1.7520   -3.8010 hc        1 MOL      0.058167
    151 H71        -7.9600    0.7290   -4.0540 hc        1 MOL      0.058167
    152 N14        -5.7520    0.6510   -0.5260 n         1 MOL     -0.187302
    153 C49        -4.9400   -0.3650    0.2250 c3        1 MOL      0.047170
    154 C50        -5.2700   -0.3360    1.7370 c         1 MOL      0.613133
    155 O20        -5.3250   -1.3540    2.3870 o         1 MOL     -0.556565
    156 C51        -3.4490   -0.1590   -0.0310 c3        1 MOL     -0.254924
    157 C52        -3.2160   -0.3600   -1.5080 c3        1 MOL      0.031995
    158 C53        -1.7390   -0.1670   -1.8130 c         1 MOL      0.550547
    159 O21        -1.1710    0.8750   -1.3350 o         1 MOL     -0.608231
    160 O22        -1.0940   -0.9890   -2.4390 o         1 MOL     -0.608231
    161 H72        -5.4470    1.6130   -0.4260 hn        1 MOL     -0.124883
    162 H73        -5.2690   -1.3630   -0.0870 h1        1 MOL     -0.007118
    163 H74        -2.8020   -0.8160    0.5510 hc        1 MOL      0.099745
    164 H75        -3.2790    0.8810    0.2390 hc        1 MOL      0.099745
    165 H76        -3.6980    0.3430   -2.1900 hc        1 MOL      0.003985
    166 H77        -3.4050   -1.3810   -1.8460 hc        1 MOL      0.003985
    167 N15        -5.5330    0.8280    2.3180 n         1 MOL     -0.326709
    168 C54        -5.8860    1.0450    3.7740 c3        1 MOL     -0.247326
    169 H78        -6.7960    0.4950    4.0130 h1        1 MOL      0.115952
    170 H79        -5.0710    0.6880    4.4030 h1        1 MOL      0.115952
    171 H80        -6.0470    2.1080    3.9550 h1        1 MOL      0.115952
    172 H81        -5.4030    1.7030    1.8280 hn        1 MOL      0.249984
    173 Ca1         1.2140   -0.2900   -1.3970 Ca        1 MOL      1.715205
    174 O23         1.3610   -0.2430   -4.0720 oh        1 MOL     -0.894985
    175 H82         1.9090    0.2500   -4.6890 ho        1 MOL      0.412853
    176 H83         1.3820   -1.1340   -4.4010 ho        1 MOL      0.412853
    177 O24         1.3570    2.2020   -2.5560 oh        1 MOL     -0.894985
    178 H84         1.4980    2.3200   -3.4950 ho        1 MOL      0.412853
    179 H85         0.8320    2.9460   -2.2930 ho        1 MOL      0.412853
@<TRIPOS>BOND
     1    1    2 1   
     2    1    4 1   
     3    1    5 1   
     4    1    6 1   
     5    2    3 2   
     6    2    7 1   
     7    7    8 1   
     8    7   15 1   
     9    8    9 1   
    10    8   11 1   
    11    8   16 1   
    12    9   10 2   
    13    9   19 1   
    14   11   12 1   
    15   11   17 1   
    16   11   18 1   
    17   12   13 1   
    18   12   14 1   
    19   19   20 1   
    20   19   28 1   
    21   20   21 1   
    22   20   23 1   
    23   20   29 1   
    24   21   22 2   
    25   21   41 1   
    26   23   24 1   
    27   23   30 1   
    28   23   31 1   
    29   24   25 1   
    30   24   32 1   
    31   24   33 1   
    32   25   26 1   
    33   25   34 1   
    34   25   35 1   
    35   26   27 1   
    36   26   36 1   
    37   26   37 1   
    38   27   38 1   
    39   27   39 1   
    40   27   40 1   
    41   41   42 1   
    42   41   49 1   
    43   42   43 1   
    44   42   45 1   
    45   42   50 1   
    46   43   44 2   
    47   43   53 1   
    48   45   46 1   
    49   45   51 1   
    50   45   52 1   
    51   46   47 1   
    52   46   48 1   
    53   53   54 1   
    54   53   57 1   
    55   54   55 1   
    56   54   58 1   
    57   54   59 1   
    58   55   56 2   
    59   55   60 1   
    60   60   61 1   
    61   60   68 1   
    62   61   62 1   
    63   61   64 1   
    64   61   69 1   
    65   62   63 2   
    66   62   74 1   
    67   64   65 1   
    68   64   70 1   
    69   64   71 1   
    70   65   66 1   
    71   65   67 2   
    72   66   72 1   
    73   66   73 1   
    74   74   75 1   
    75   74   78 1   
    76   75   76 1   
    77   75   79 1   
    78   75   80 1   
    79   76   77 2   
    80   76   81 1   
    81   81   82 1   
    82   81   93 1   
    83   82   83 1   
    84   82   85 1   
    85   82   94 1   
    86   83   84 2   
    87   83  102 1   
    88   85   86 1   
    89   85   95 1   
    90   85   96 1   
    91   86   87 ar  
    92   86   88 ar  
    93   87   89 ar  
    94   87   97 1   
    95   88   90 ar  
    96   88   98 1   
    97   89   91 ar  
    98   89   99 1   
    99   90   91 ar  
   100   90  100 1   
   101   91   92 1   
   102   92  101 1   
   103  102  103 1   
   104  102  110 1   
   105  103  104 1   
   106  103  106 1   
   107  103  111 1   
   108  104  105 2   
   109  104  121 1   
   110  106  107 1   
   111  106  108 1   
   112  106  112 1   
   113  107  109 1   
   114  107  113 1   
   115  107  114 1   
   116  108  115 1   
   117  108  116 1   
   118  108  117 1   
   119  109  118 1   
   120  109  119 1   
   121  109  120 1   
   122  121  122 1   
   123  121  127 1   
   124  122  123 1   
   125  122  125 1   
   126  122  128 1   
   127  123  124 2   
   128  123  132 1   
   129  125  126 1   
   130  125  129 1   
   131  125  130 1   
   132  126  131 1   
   133  132  133 1   
   134  132  137 1   
   135  133  134 1   
   136  133  136 1   
   137  133  138 1   
   138  134  135 2   
   139  134  142 1   
   140  136  139 1   
   141  136  140 1   
   142  136  141 1   
   143  142  143 1   
   144  142  147 1   
   145  143  144 1   
   146  143  146 1   
   147  143  148 1   
   148  144  145 2   
   149  144  152 1   
   150  146  149 1   
   151  146  150 1   
   152  146  151 1   
   153  152  153 1   
   154  152  161 1   
   155  153  154 1   
   156  153  156 1   
   157  153  162 1   
   158  154  155 2   
   159  154  167 1   
   160  156  157 1   
   161  156  163 1   
   162  156  164 1   
   163  157  158 1   
   164  157  165 1   
   165  157  166 1   
   166  158  159 1   
   167  158  160 1   
   168  167  168 1   
   169  167  172 1   
   170  168  169 1   
   171  168  170 1   
   172  168  171 1   
   173  174  175 1   
   174  174  176 1   
   175  177  178 1   
   176  177  179 1   
@<TRIPOS>SUBSTRUCTURE
     1 MOL         1 TEMP              0 ****  ****    0 ROOT
