@<TRIPOS>MOLECULE
MOL
  186   183     1     0     0
SMALL
resp


@<TRIPOS>ATOM
      1 C1          1.0710   -0.4360    6.5110 c3        1 MOL     -0.313998
      2 C2          1.1710   -0.7860    5.0180 c         1 MOL      0.722672
      3 O1          0.1790   -1.3990    4.5020 o         1 MOL     -0.587436
      4 H1          1.3010   -1.3190    7.1070 hc        1 MOL      0.068255
      5 H2          1.7820    0.3560    6.7480 hc        1 MOL      0.068255
      6 H3          0.0600   -0.0980    6.7390 hc        1 MOL      0.068255
      7 N1          2.2900   -0.5670    4.4190 n         1 MOL     -0.498110
      8 C3          2.6610   -1.0020    3.0390 c3        1 MOL      0.071769
      9 C4          2.7790   -2.5830    2.9910 c         1 MOL      0.449581
     10 O2          3.5240   -3.1490    3.7810 o         1 MOL     -0.564430
     11 C5          3.9920   -0.2840    2.6580 c3        1 MOL      0.049905
     12 C6          4.6930   -0.6670    1.3610 c         1 MOL      0.637677
     13 O3          5.8850   -0.7030    1.2670 o         1 MOL     -0.620903
     14 O4          3.9770   -1.0020    0.4390 o         1 MOL     -0.620903
     15 H4          2.9190    0.0420    4.9160 hn        1 MOL      0.272575
     16 H5          1.9500   -0.6420    2.2960 h1        1 MOL      0.037222
     17 H6          4.7550   -0.4350    3.4220 hc        1 MOL     -0.036724
     18 H7          3.7800    0.7810    2.6120 hc        1 MOL     -0.036724
     19 N2          2.1560   -3.1990    1.9840 n         1 MOL     -0.095477
     20 C7          2.3930   -4.6290    1.7290 c3        1 MOL     -0.125805
     21 C8          3.5520   -4.9620    0.7560 c         1 MOL      0.503486
     22 O5          3.9350   -6.1400    0.5800 o         1 MOL     -0.582400
     23 C9          1.1030   -5.4330    1.3250 c3        1 MOL      0.172028
     24 C10         0.6590   -5.1830   -0.1120 c3        1 MOL      0.031317
     25 C11         0.0610   -5.2260    2.4730 c3        1 MOL     -0.171801
     26 C12        -0.6200   -5.9500   -0.4420 c3        1 MOL     -0.288503
     27 H8          1.5820   -2.6390    1.3710 hn        1 MOL      0.110890
     28 H9          2.7240   -5.1150    2.6480 h1        1 MOL      0.085311
     29 H10         1.3760   -6.4860    1.2790 hc        1 MOL     -0.040210
     30 H11         1.3340   -5.4620   -0.9120 hc        1 MOL      0.060154
     31 H12         0.3720   -4.1420   -0.2440 hc        1 MOL      0.060154
     32 H13        -0.1540   -4.1590    2.4510 hc        1 MOL      0.032493
     33 H14        -0.9010   -5.6580    2.1790 hc        1 MOL      0.032493
     34 H15         0.3520   -5.5790    3.4650 hc        1 MOL      0.032493
     35 H16        -1.4250   -5.4390    0.0790 hc        1 MOL      0.068038
     36 H17        -0.8360   -5.9150   -1.5060 hc        1 MOL      0.068038
     37 H18        -0.5880   -7.0010   -0.1470 hc        1 MOL      0.068038
     38 N3          4.1310   -4.0210    0.0120 n         1 MOL     -0.365887
     39 C13         4.9810   -4.3860   -1.1320 c3        1 MOL     -0.105869
     40 C14         6.2710   -3.5220   -1.3510 c         1 MOL      0.556634
     41 O6          6.8800   -3.6220   -2.3870 o         1 MOL     -0.532960
     42 C15         4.1670   -4.5460   -2.3920 c3        1 MOL     -0.125442
     43 C16         3.4670   -3.3240   -2.8720 c         1 MOL      0.779401
     44 O7          2.5050   -3.4710   -3.7060 o         1 MOL     -0.734366
     45 O8          3.8160   -2.2020   -2.4740 o         1 MOL     -0.734366
     46 H19         3.7030   -3.1020   -0.0140 hn        1 MOL      0.177042
     47 H20         5.3600   -5.3770   -0.8850 h1        1 MOL      0.124641
     48 H21         3.4200   -5.3280   -2.2690 hc        1 MOL      0.044575
     49 H22         4.7850   -4.8720   -3.2290 hc        1 MOL      0.044575
     50 N4          6.7790   -2.7960   -0.2880 n         1 MOL     -0.408837
     51 C17         8.1420   -2.3940   -0.2470 c3        1 MOL     -0.242398
     52 C18         8.4120   -1.0010   -0.6690 c         1 MOL      0.573784
     53 O9          9.5820   -0.6470   -0.6530 o         1 MOL     -0.629529
     54 H23         6.1470   -2.5300    0.4530 hn        1 MOL      0.313009
     55 H24         8.7810   -3.0760   -0.8050 h1        1 MOL      0.129838
     56 H25         8.4330   -2.5280    0.7960 h1        1 MOL      0.129838
     57 N5          7.4280   -0.1850   -1.1190 n         1 MOL     -0.198053
     58 C19         7.5850    1.2100   -1.5640 c3        1 MOL     -0.009746
     59 C20         7.3330    2.2810   -0.5020 c         1 MOL      0.412193
     60 O10         7.5550    3.4960   -0.7120 o         1 MOL     -0.556806
     61 C21         6.6150    1.3950   -2.8250 c3        1 MOL     -0.184685
     62 C22         5.1070    1.1430   -2.4820 c         1 MOL      0.791611
     63 O11         4.1930    0.8540   -3.3160 o         1 MOL     -0.750810
     64 O12         4.7030    1.4490   -1.3120 o         1 MOL     -0.750810
     65 H26         6.5310   -0.6090   -0.8860 hn        1 MOL      0.124087
     66 H27         8.5990    1.3160   -1.9450 h1        1 MOL      0.098917
     67 H28         6.8630    0.7130   -3.6420 hc        1 MOL      0.045955
     68 H29         6.7670    2.4320   -3.1100 hc        1 MOL      0.045955
     69 N6          6.7140    1.8610    0.6430 n         1 MOL     -0.196569
     70 C23         6.4330    2.7330    1.8590 c3        1 MOL      0.025864
     71 C24         5.3070    3.7820    1.5850 c         1 MOL      0.475409
     72 O13         5.3410    4.8820    2.1770 o         1 MOL     -0.604428
     73 H30         6.4710    0.8870    0.7460 hn        1 MOL      0.157359
     74 H31         7.3390    3.2840    2.1090 h1        1 MOL      0.028604
     75 H32         6.1730    2.0540    2.6740 h1        1 MOL      0.028604
     76 N7          4.3420    3.4650    0.7510 n         1 MOL     -0.066191
     77 C25         3.0990    4.1560    0.5910 c3        1 MOL     -0.355044
     78 C26         1.9400    3.1340    0.6020 c         1 MOL      0.808540
     79 O14         2.1370    1.9660    0.4060 o         1 MOL     -0.652302
     80 C27         3.2360    5.0770   -0.6310 c3        1 MOL     -0.211394
     81 C28         4.2300    6.2480   -0.4990 c3        1 MOL     -0.066913
     82 C29         4.2870    7.0970   -1.7470 c         1 MOL      0.562655
     83 N8          5.0340    6.6090   -2.6930 n         1 MOL     -0.731292
     84 O15         3.4680    7.9090   -2.0400 o         1 MOL     -0.562862
     85 H33         4.4120    2.5350    0.3540 hn        1 MOL      0.176296
     86 H34         2.9190    4.7900    1.4610 h1        1 MOL      0.148467
     87 H35         2.2380    5.4530   -0.8420 hc        1 MOL      0.129800
     88 H36         3.6270    4.5590   -1.5160 hc        1 MOL      0.129800
     89 H37         5.2370    5.9760   -0.1750 hc        1 MOL      0.046413
     90 H38         3.7840    6.9140    0.2450 hc        1 MOL      0.046413
     91 H39         5.6310    5.8120   -2.5730 hn        1 MOL      0.342313
     92 H40         5.0070    7.0260   -3.6160 hn        1 MOL      0.342313
     93 N9          0.7450    3.6280    0.8130 n         1 MOL     -0.637791
     94 C30        -0.4220    2.8690    1.2370 c3        1 MOL      0.148494
     95 C31        -1.6030    3.2890    0.3120 c         1 MOL      0.429230
     96 O16        -2.2110    4.3390    0.4330 o         1 MOL     -0.543654
     97 C32        -0.8050    3.1070    2.7150 c3        1 MOL      0.230188
     98 C33        -1.5650    1.9150    3.2650 c3        1 MOL     -0.261787
     99 C34         0.4140    3.2780    3.6290 c3        1 MOL     -0.261787
    100 H41         0.7340    4.6070    1.0770 hn        1 MOL      0.332559
    101 H42        -0.2600    1.8160    1.0370 h1        1 MOL      0.119038
    102 H43        -1.4280    3.9910    2.8620 hc        1 MOL     -0.036954
    103 H44        -1.8550    2.0200    4.3150 hc        1 MOL      0.047092
    104 H45        -2.4880    1.9800    2.6940 hc        1 MOL      0.047092
    105 H46        -1.0850    0.9460    3.1860 hc        1 MOL      0.047092
    106 H47         0.0420    3.5280    4.6330 hc        1 MOL      0.047092
    107 H48         0.9420    2.3380    3.7880 hc        1 MOL      0.047092
    108 H49         1.0990    3.9650    3.1370 hc        1 MOL      0.047092
    109 N10        -1.8930    2.4130   -0.6440 n         1 MOL     -0.291988
    110 C35        -3.2100    2.4160   -1.2880 c3        1 MOL      0.225987
    111 C36        -4.4160    2.2200   -0.4250 c         1 MOL      0.168185
    112 O17        -4.2950    1.5330    0.5860 o         1 MOL     -0.185663
    113 C37        -3.1240    1.3480   -2.3990 c3        1 MOL     -0.516665
    114 C38        -4.2080    1.2740   -3.3810 c         1 MOL      0.743801
    115 N11        -4.8150    2.3630   -3.7910 n         1 MOL     -0.778031
    116 O18        -4.7430    0.2490   -3.6970 o         1 MOL     -0.502479
    117 H50        -1.3870    1.5370   -0.6480 hn        1 MOL      0.124498
    118 H51        -3.3530    3.4130   -1.6890 h1        1 MOL      0.025276
    119 H52        -3.1260    0.3330   -1.9990 hc        1 MOL      0.173745
    120 H53        -2.2070    1.4960   -2.9610 hc        1 MOL      0.173745
    121 H54        -4.4270    3.2970   -3.7010 hn        1 MOL      0.336518
    122 H55        -5.6110    2.3020   -4.4040 hn        1 MOL      0.336518
    123 N12        -5.5870    2.6720   -0.9180 n         1 MOL     -0.333527
    124 C39        -6.8920    2.1900   -0.3400 c3        1 MOL      0.176756
    125 C40        -6.9400    0.7060   -0.0660 c         1 MOL      0.512161
    126 O19        -7.5850    0.2890    0.8860 o         1 MOL     -0.491874
    127 C41        -8.0390    2.5140   -1.2460 c3        1 MOL     -0.300392
    128 C42        -9.3760    2.0590   -0.6900 ca        1 MOL      0.001138
    129 C43        -9.8030    2.6410    0.5490 ca        1 MOL     -0.080654
    130 C44       -10.2550    1.1430   -1.3490 ca        1 MOL     -0.080654
    131 C45       -11.0730    2.1830    1.1130 ca        1 MOL     -0.414028
    132 C46       -11.4370    0.7370   -0.7530 ca        1 MOL     -0.414028
    133 C47       -11.8340    1.1660    0.5460 ca        1 MOL      0.535555
    134 O20       -12.9410    0.7330    1.1940 oh        1 MOL     -0.539685
    135 H56        -5.4930    3.2350   -1.7500 hn        1 MOL      0.234337
    136 H57        -7.0580    2.7210    0.5960 h1        1 MOL      0.034874
    137 H58        -7.9290    2.0010   -2.2030 hc        1 MOL      0.099928
    138 H59        -8.0290    3.6010   -1.3980 hc        1 MOL      0.099928
    139 H60        -9.1040    3.1940    1.1490 ha        1 MOL      0.143451
    140 H61       -10.0830    0.7240   -2.3290 ha        1 MOL      0.143451
    141 H62       -11.4350    2.5300    2.0670 ha        1 MOL      0.166842
    142 H63       -12.0280   -0.1060   -1.0590 ha        1 MOL      0.166842
    143 H64       -13.6210    0.5480    0.5420 ho        1 MOL      0.359054
    144 N13        -6.4370   -0.0780   -0.9800 n         1 MOL     -0.223807
    145 C48        -6.5040   -1.5580   -0.7000 c3        1 MOL     -0.277573
    146 C49        -5.5590   -2.0690    0.3460 c         1 MOL      0.303337
    147 O21        -5.8250   -3.1340    0.9200 o         1 MOL     -0.475797
    148 C50        -6.3840   -2.3280   -2.0380 c3        1 MOL      0.307212
    149 C51        -6.6120   -3.8200   -1.9910 c3        1 MOL     -0.248762
    150 C52        -6.4950   -4.3310   -3.4620 c         1 MOL      0.684032
    151 O22        -7.4400   -5.0860   -3.8720 o         1 MOL     -0.734302
    152 O23        -5.4910   -3.9980   -4.1500 o         1 MOL     -0.734302
    153 H65        -6.0000    0.3610   -1.7810 hn        1 MOL      0.179324
    154 H66        -7.5150   -1.8060   -0.3950 h1        1 MOL      0.164552
    155 H67        -5.4170   -2.0960   -2.4710 hc        1 MOL     -0.041754
    156 H68        -7.0950   -1.8500   -2.7070 hc        1 MOL     -0.041754
    157 H69        -7.6420   -4.0050   -1.6970 hc        1 MOL      0.029685
    158 H70        -5.8960   -4.3330   -1.3440 hc        1 MOL      0.029685
    159 N14        -4.4620   -1.2840    0.6290 n         1 MOL      0.003951
    160 C53        -3.5530   -1.5250    1.7060 c3        1 MOL     -0.141147
    161 C54        -4.0000   -1.0030    3.0410 c         1 MOL      0.495286
    162 O24        -3.7880   -1.6450    4.0270 o         1 MOL     -0.566343
    163 C55        -2.1140   -1.0340    1.3500 c3        1 MOL      0.185696
    164 C56        -1.5080   -1.6740    0.0380 c3        1 MOL     -0.192490
    165 C57        -0.1020   -1.0480   -0.1540 c         1 MOL      0.642129
    166 O25         0.8980   -1.7000    0.0920 o         1 MOL     -0.671147
    167 O26         0.0380    0.0540   -0.7500 o         1 MOL     -0.671147
    168 H71        -4.5350   -0.3450    0.2620 hn        1 MOL      0.028243
    169 H72        -3.5690   -2.6090    1.7990 h1        1 MOL      0.099950
    170 H73        -1.4030   -1.2530    2.1450 hc        1 MOL      0.009134
    171 H74        -2.1300    0.0420    1.1900 hc        1 MOL      0.009134
    172 H75        -2.2400   -1.4120   -0.7220 hc        1 MOL      0.062842
    173 H76        -1.4770   -2.7580    0.0760 hc        1 MOL      0.062842
    174 N15        -4.6710    0.1050    3.0420 n         1 MOL     -0.062904
    175 C58        -5.2510    0.6900    4.2750 c3        1 MOL     -0.165548
    176 H77        -5.4100   -0.0980    5.0100 h1        1 MOL      0.068370
    177 H78        -4.5650    1.4330    4.6820 h1        1 MOL      0.068370
    178 H79        -6.2030    1.1640    4.0390 h1        1 MOL      0.068370
    179 H80        -4.8400    0.5540    2.1530 hn        1 MOL     -0.003178
    180 Ca1         2.6560   -0.0900   -1.4550 Ca        1 MOL      1.741184
    181 O27         1.5090   -1.1150   -3.7890 oh        1 MOL     -0.814067
    182 H81         1.8160   -0.8430   -4.6560 ho        1 MOL      0.383184
    183 H82         1.9290   -1.9670   -3.6370 ho        1 MOL      0.383184
    184 O28         0.9270    1.7190   -2.8990 oh        1 MOL     -0.814067
    185 H83         0.7070    2.5660   -3.2770 ho        1 MOL      0.383184
    186 H84         0.0950    1.2520   -2.8410 ho        1 MOL      0.383184
@<TRIPOS>BOND
     1    1    2 1   
     2    1    4 1   
     3    1    5 1   
     4    1    6 1   
     5    2    3 2   
     6    2    7 1   
     7    7    8 1   
     8    7   15 1   
     9    8    9 1   
    10    8   11 1   
    11    8   16 1   
    12    9   10 2   
    13    9   19 1   
    14   11   12 1   
    15   11   17 1   
    16   11   18 1   
    17   12   13 1   
    18   12   14 1   
    19   19   20 1   
    20   19   27 1   
    21   20   21 1   
    22   20   23 1   
    23   20   28 1   
    24   21   22 2   
    25   21   38 1   
    26   23   24 1   
    27   23   25 1   
    28   23   29 1   
    29   24   26 1   
    30   24   30 1   
    31   24   31 1   
    32   25   32 1   
    33   25   33 1   
    34   25   34 1   
    35   26   35 1   
    36   26   36 1   
    37   26   37 1   
    38   38   39 1   
    39   38   46 1   
    40   39   40 1   
    41   39   42 1   
    42   39   47 1   
    43   40   41 2   
    44   40   50 1   
    45   42   43 1   
    46   42   48 1   
    47   42   49 1   
    48   43   44 1   
    49   43   45 1   
    50   50   51 1   
    51   50   54 1   
    52   51   52 1   
    53   51   55 1   
    54   51   56 1   
    55   52   53 2   
    56   52   57 1   
    57   57   58 1   
    58   57   65 1   
    59   58   59 1   
    60   58   61 1   
    61   58   66 1   
    62   59   60 2   
    63   59   69 1   
    64   61   62 1   
    65   61   67 1   
    66   61   68 1   
    67   62   63 1   
    68   62   64 1   
    69   69   70 1   
    70   69   73 1   
    71   70   71 1   
    72   70   74 1   
    73   70   75 1   
    74   71   72 2   
    75   71   76 1   
    76   76   77 1   
    77   76   85 1   
    78   77   78 1   
    79   77   80 1   
    80   77   86 1   
    81   78   79 2   
    82   78   93 1   
    83   80   81 1   
    84   80   87 1   
    85   80   88 1   
    86   81   82 1   
    87   81   89 1   
    88   81   90 1   
    89   82   83 1   
    90   82   84 2   
    91   83   91 1   
    92   83   92 1   
    93   93   94 1   
    94   93  100 1   
    95   94   95 1   
    96   94   97 1   
    97   94  101 1   
    98   95   96 2   
    99   95  109 1   
   100   97   98 1   
   101   97   99 1   
   102   97  102 1   
   103   98  103 1   
   104   98  104 1   
   105   98  105 1   
   106   99  106 1   
   107   99  107 1   
   108   99  108 1   
   109  109  110 1   
   110  109  117 1   
   111  110  111 1   
   112  110  113 1   
   113  110  118 1   
   114  111  112 2   
   115  111  123 1   
   116  113  114 1   
   117  113  119 1   
   118  113  120 1   
   119  114  115 1   
   120  114  116 2   
   121  115  121 1   
   122  115  122 1   
   123  123  124 1   
   124  123  135 1   
   125  124  125 1   
   126  124  127 1   
   127  124  136 1   
   128  125  126 2   
   129  125  144 1   
   130  127  128 1   
   131  127  137 1   
   132  127  138 1   
   133  128  129 ar  
   134  128  130 ar  
   135  129  131 ar  
   136  129  139 1   
   137  130  132 ar  
   138  130  140 1   
   139  131  133 ar  
   140  131  141 1   
   141  132  133 ar  
   142  132  142 1   
   143  133  134 1   
   144  134  143 1   
   145  144  145 1   
   146  144  153 1   
   147  145  146 1   
   148  145  148 1   
   149  145  154 1   
   150  146  147 2   
   151  146  159 1   
   152  148  149 1   
   153  148  155 1   
   154  148  156 1   
   155  149  150 1   
   156  149  157 1   
   157  149  158 1   
   158  150  151 1   
   159  150  152 1   
   160  159  160 1   
   161  159  168 1   
   162  160  161 1   
   163  160  163 1   
   164  160  169 1   
   165  161  162 2   
   166  161  174 1   
   167  163  164 1   
   168  163  170 1   
   169  163  171 1   
   170  164  165 1   
   171  164  172 1   
   172  164  173 1   
   173  165  166 1   
   174  165  167 1   
   175  174  175 1   
   176  174  179 1   
   177  175  176 1   
   178  175  177 1   
   179  175  178 1   
   180  181  182 1   
   181  181  183 1   
   182  184  185 1   
   183  184  186 1   
@<TRIPOS>SUBSTRUCTURE
     1 MOL         1 TEMP              0 ****  ****    0 ROOT
