@<TRIPOS>MOLECULE
MOL
  189   185     1     0     0
SMALL
resp


@<TRIPOS>ATOM
      1 C1          0.7860   -3.8250    6.0060 c3        1 MOL     -0.338676
      2 C2          0.9010   -4.2100    4.4980 c         1 MOL      0.807428
      3 O1         -0.0470   -4.4280    3.8110 o         1 MOL     -0.569310
      4 H1          1.3080   -4.5670    6.6110 hc        1 MOL      0.071235
      5 H2          1.2340   -2.8450    6.1670 hc        1 MOL      0.071235
      6 H3         -0.2650   -3.7960    6.2950 hc        1 MOL      0.071235
      7 N1          2.1540   -4.2560    4.0070 n         1 MOL     -0.788287
      8 C3          2.5180   -3.9040    2.6090 c3        1 MOL      0.489620
      9 C4          2.2190   -5.0130    1.5780 c         1 MOL      0.407284
     10 O2          2.5200   -6.2290    1.8180 o         1 MOL     -0.567787
     11 C5          3.9380   -3.4390    2.6340 c3        1 MOL     -0.259457
     12 C6          4.3880   -3.1100    1.2240 c         1 MOL      0.705334
     13 O3          3.7200   -2.3740    0.4860 o         1 MOL     -0.640822
     14 O4          5.4230   -3.6380    0.8370 o         1 MOL     -0.640822
     15 H4          2.8950   -4.1650    4.6910 hn        1 MOL      0.324389
     16 H5          1.9430   -3.0100    2.3560 h1        1 MOL     -0.049523
     17 H6          4.4960   -4.3280    2.9630 hc        1 MOL      0.009710
     18 H7          4.0490   -2.6010    3.3240 hc        1 MOL      0.009710
     19 N2          1.7710   -4.6570    0.3420 n         1 MOL      0.010392
     20 C7          1.6120   -5.6220   -0.8090 c3        1 MOL     -0.248376
     21 C8          2.4220   -5.3280   -2.0710 c         1 MOL      0.462554
     22 O5          2.4110   -6.0580   -3.0710 o         1 MOL     -0.569351
     23 C9          0.1030   -5.8130   -1.1710 c3        1 MOL      0.390246
     24 C10        -0.5010   -4.5710   -1.7780 c3        1 MOL      0.003313
     25 C11        -0.6630   -6.3870    0.0080 c3        1 MOL     -0.369180
     26 C12        -1.8540   -4.7500   -2.4980 c3        1 MOL     -0.341235
     27 H8          1.3110   -3.7570    0.2720 hn        1 MOL     -0.059275
     28 H9          1.8800   -6.5930   -0.3900 h1        1 MOL      0.109763
     29 H10         0.1450   -6.5410   -1.9870 hc        1 MOL     -0.077484
     30 H11         0.1490   -4.0510   -2.4910 hc        1 MOL      0.047063
     31 H12        -0.5810   -3.9310   -0.9000 hc        1 MOL      0.047063
     32 H13        -0.1070   -7.2270    0.4320 hc        1 MOL      0.078013
     33 H14        -0.7950   -5.6790    0.8190 hc        1 MOL      0.078013
     34 H15        -1.6130   -6.7200   -0.3920 hc        1 MOL      0.078013
     35 H16        -1.7300   -5.6380   -3.1190 hc        1 MOL      0.086122
     36 H17        -2.6110   -4.8740   -1.7340 hc        1 MOL      0.086122
     37 H18        -2.1980   -3.9030   -3.1020 hc        1 MOL      0.086122
     38 N3          3.1130   -4.1860   -2.1850 n         1 MOL     -0.309569
     39 C13         3.7870   -3.6170   -3.4130 c3        1 MOL      0.110751
     40 C14         5.1330   -2.9390   -3.1470 c         1 MOL      0.300963
     41 O6          5.8940   -2.6440   -4.0800 o         1 MOL     -0.574455
     42 C15         2.9190   -2.5820   -4.1150 c3        1 MOL     -0.331387
     43 C16         2.3650   -1.4610   -3.2690 c         1 MOL      0.811012
     44 O7          2.8690   -1.1050   -2.1660 o         1 MOL     -0.716170
     45 O8          1.4420   -0.7220   -3.7640 o         1 MOL     -0.716170
     46 H19         3.0780   -3.5920   -1.3640 hn        1 MOL      0.278121
     47 H20         4.0120   -4.5200   -3.9770 h1        1 MOL      0.084017
     48 H21         2.0830   -3.2210   -4.3820 hc        1 MOL      0.095983
     49 H22         3.3910   -2.2550   -5.0430 hc        1 MOL      0.095983
     50 N4          5.4270   -2.5900   -1.9220 n         1 MOL      0.135324
     51 C17         6.7350   -2.0210   -1.5870 c3        1 MOL     -0.329635
     52 C18         6.8360   -0.5380   -2.0120 c         1 MOL      0.584445
     53 O9          7.9530    0.0060   -1.9340 o         1 MOL     -0.641063
     54 H23         4.8320   -2.8590   -1.1560 hn        1 MOL     -0.087725
     55 H24         7.5350   -2.5060   -2.1370 h1        1 MOL      0.133817
     56 H25         6.8780   -2.0840   -0.4960 h1        1 MOL      0.133817
     57 N5          5.7720    0.1980   -2.3280 n         1 MOL     -0.298928
     58 C19         5.9040    1.6330   -2.7410 c3        1 MOL      0.053363
     59 C20         6.3630    2.6680   -1.7200 c         1 MOL      0.390877
     60 O10         6.6750    3.8380   -2.0360 o         1 MOL     -0.554299
     61 C21         4.6440    2.1330   -3.4200 c3        1 MOL     -0.290686
     62 C22         3.5420    2.2620   -2.3540 c         1 MOL      0.841962
     63 O11         3.6910    1.7810   -1.2200 o         1 MOL     -0.741882
     64 O12         2.4640    2.8690   -2.6610 o         1 MOL     -0.741882
     65 H26         4.8690   -0.2260   -2.4380 hn        1 MOL      0.227184
     66 H27         6.7000    1.7030   -3.4830 h1        1 MOL      0.072224
     67 H28         4.2410    1.3900   -4.1120 hc        1 MOL      0.082849
     68 H29         4.7910    3.0750   -3.9550 hc        1 MOL      0.082849
     69 N6          6.3760    2.2700   -0.4470 n         1 MOL     -0.054683
     70 C23         6.8770    3.1220    0.6220 c3        1 MOL     -0.347561
     71 C24         5.7640    4.0400    1.2170 c         1 MOL      0.652660
     72 O13         5.9700    4.9830    1.9590 o         1 MOL     -0.598753
     73 H30         5.9400    1.3840   -0.2600 hn        1 MOL      0.176303
     74 H31         7.6040    3.7320    0.1000 h1        1 MOL      0.121881
     75 H32         7.3720    2.4540    1.3330 h1        1 MOL      0.121881
     76 N7          4.4850    3.6210    1.0430 n         1 MOL     -0.451438
     77 C25         3.3270    4.2320    1.6010 c3        1 MOL      0.021522
     78 C26         2.1480    3.2140    1.7600 c         1 MOL      0.470656
     79 O14         2.1250    2.1760    1.1480 o         1 MOL     -0.541842
     80 C27         2.7910    5.3880    0.6960 c3        1 MOL     -0.045812
     81 C28         3.6460    6.7390    0.6200 c3        1 MOL     -0.015175
     82 C29         3.1160    7.8740   -0.3060 c         1 MOL      0.538562
     83 N8          3.1150    7.6850   -1.6100 n         1 MOL     -0.738805
     84 O15         2.6790    8.8980    0.2090 o         1 MOL     -0.571513
     85 H33         4.3230    2.9430    0.3080 hn        1 MOL      0.295698
     86 H34         3.5570    4.6780    2.5680 h1        1 MOL      0.057893
     87 H35         1.8640    5.6730    1.1800 hc        1 MOL      0.044336
     88 H36         2.6160    4.9870   -0.3030 hc        1 MOL      0.044336
     89 H37         4.6340    6.5560    0.2090 hc        1 MOL      0.030946
     90 H38         3.7270    7.1900    1.6140 hc        1 MOL      0.030946
     91 H39         3.7040    7.0100   -2.0720 hn        1 MOL      0.352428
     92 H40         2.7410    8.4590   -2.1490 hn        1 MOL      0.352428
     93 N9          1.2050    3.5090    2.7030 n         1 MOL     -0.352363
     94 C30        -0.0650    2.7900    2.9140 c3        1 MOL     -0.032099
     95 C31        -1.1490    3.3030    1.9830 c         1 MOL      0.565347
     96 O16        -1.5930    4.4000    2.1660 o         1 MOL     -0.570961
     97 C32        -0.3520    2.8670    4.4530 c3        1 MOL      0.244270
     98 C33        -1.7750    2.3220    4.8090 c3        1 MOL     -0.282360
     99 C34         0.6710    1.9480    5.2110 c3        1 MOL     -0.282360
    100 H41         1.3420    4.3280    3.2760 hn        1 MOL      0.227473
    101 H42         0.1220    1.7340    2.7220 h1        1 MOL      0.072045
    102 H43        -0.3640    3.8840    4.8470 hc        1 MOL     -0.007172
    103 H44        -2.5400    2.8170    4.2110 hc        1 MOL      0.058647
    104 H45        -1.8510    1.2920    4.4470 hc        1 MOL      0.058647
    105 H46        -1.9930    2.4140    5.8640 hc        1 MOL      0.058647
    106 H47         0.7360    0.9710    4.7500 hc        1 MOL      0.058647
    107 H48         1.6460    2.4280    5.1570 hc        1 MOL      0.058647
    108 H49         0.3990    1.9230    6.2670 hc        1 MOL      0.058647
    109 N10        -1.5920    2.3680    1.0980 n         1 MOL     -0.423029
    110 C35        -2.7670    2.6120    0.2360 c3        1 MOL      0.421831
    111 C36        -3.9790    2.3110    1.0250 c         1 MOL      0.241974
    112 O17        -3.9010    1.4590    1.8760 o         1 MOL     -0.394115
    113 C37        -2.6360    1.8790   -1.0950 c3        1 MOL     -0.651336
    114 C38        -3.7950    2.0610   -2.0640 c         1 MOL      0.826501
    115 N11        -4.1790    3.2510   -2.3870 n         1 MOL     -0.842819
    116 O18        -4.5620    1.1080   -2.3730 o         1 MOL     -0.527714
    117 H50        -1.2470    1.4180    1.1440 hn        1 MOL      0.275418
    118 H51        -2.9020    3.6750    0.0350 h1        1 MOL     -0.046750
    119 H52        -2.5610    0.8050   -0.8990 hc        1 MOL      0.185327
    120 H53        -1.6970    2.1120   -1.5880 hc        1 MOL      0.185327
    121 H54        -3.7380    4.0050   -1.8820 hn        1 MOL      0.380580
    122 H55        -4.8280    3.4000   -3.1410 hn        1 MOL      0.380580
    123 N12        -5.1690    2.6300    0.4570 n         1 MOL     -0.156601
    124 C39        -6.4530    2.1130    0.9220 c3        1 MOL      0.036281
    125 C40        -6.5400    0.5630    0.9590 c         1 MOL      0.441056
    126 O19        -7.1670    0.0710    1.8950 o         1 MOL     -0.566978
    127 C41        -7.5640    2.8070    0.1630 c3        1 MOL     -0.233159
    128 C42        -7.4810    2.7820   -1.3960 ca        1 MOL      0.176644
    129 C43        -8.1170    1.7260   -2.0560 ca        1 MOL     -0.265025
    130 C44        -6.9510    3.9040   -2.1510 ca        1 MOL     -0.265025
    131 C45        -8.1520    1.7550   -3.4570 ca        1 MOL     -0.263985
    132 C46        -6.9420    3.8650   -3.5440 ca        1 MOL     -0.263985
    133 C47        -7.5700    2.7610   -4.1820 ca        1 MOL      0.388985
    134 O20        -7.5730    2.7070   -5.5640 oh        1 MOL     -0.562800
    135 H56        -5.2280    3.3040   -0.2860 hn        1 MOL      0.098966
    136 H57        -6.5260    2.4410    1.9540 h1        1 MOL      0.060852
    137 H58        -7.6220    3.8800    0.3170 hc        1 MOL      0.076445
    138 H59        -8.4830    2.3150    0.4880 hc        1 MOL      0.076445
    139 H60        -8.6800    1.0000   -1.5020 ha        1 MOL      0.173162
    140 H61        -6.4680    4.7100   -1.6140 ha        1 MOL      0.173162
    141 H62        -8.6810    0.9750   -3.9740 ha        1 MOL      0.153443
    142 H63        -6.4960    4.6770   -4.0990 ha        1 MOL      0.153443
    143 H64        -8.1020    1.9750   -5.8990 ho        1 MOL      0.413141
    144 N13        -5.9450   -0.1370    0.0360 n         1 MOL     -0.111801
    145 C48        -6.0190   -1.5930   -0.0160 c3        1 MOL     -0.046367
    146 C49        -5.1570   -2.3120    1.0600 c         1 MOL      0.370225
    147 O21        -5.4880   -3.4760    1.3210 o         1 MOL     -0.507962
    148 C50        -5.6380   -2.1110   -1.4790 c3        1 MOL      0.008038
    149 C51        -6.8570   -1.9610   -2.4460 c3        1 MOL     -0.320998
    150 C52        -6.7190   -2.8860   -3.6140 c         1 MOL      0.756598
    151 O22        -7.3300   -3.9450   -3.5610 o         1 MOL     -0.746345
    152 O23        -6.1290   -2.5790   -4.7050 o         1 MOL     -0.746345
    153 H65        -5.5190    0.3700   -0.7240 hn        1 MOL      0.187756
    154 H66        -7.0650   -1.7880    0.1950 h1        1 MOL      0.081904
    155 H67        -5.4110   -3.1810   -1.5180 hc        1 MOL      0.047446
    156 H68        -4.7530   -1.5370   -1.7660 hc        1 MOL      0.047446
    157 H69        -6.9620   -0.9030   -2.6920 hc        1 MOL      0.069138
    158 H70        -7.7270   -2.2750   -1.8680 hc        1 MOL      0.069138
    159 N14        -4.2110   -1.5340    1.5480 n         1 MOL     -0.305245
    160 C53        -3.4260   -1.9890    2.7140 c3        1 MOL      0.007335
    161 C54        -4.0170   -1.6110    4.1010 c         1 MOL      0.438554
    162 O24        -3.5830   -2.2290    5.0900 o         1 MOL     -0.550796
    163 C55        -2.0190   -1.4250    2.5790 c3        1 MOL      0.230122
    164 C56        -1.4050   -1.9720    1.2800 c3        1 MOL     -0.167885
    165 C57        -0.0400   -1.3530    0.9350 c         1 MOL      0.715630
    166 O25         0.3320   -0.3060    1.4890 o         1 MOL     -0.718710
    167 O26         0.7600   -1.8350    0.0950 o         1 MOL     -0.718710
    168 H71        -4.2080   -0.5680    1.2500 hn        1 MOL      0.169296
    169 H72        -3.3590   -3.0760    2.7640 h1        1 MOL      0.095974
    170 H73        -1.4120   -1.8530    3.3690 hc        1 MOL     -0.044753
    171 H74        -1.9640   -0.3440    2.5400 hc        1 MOL     -0.044753
    172 H75        -1.9750   -1.6900    0.4010 hc        1 MOL      0.057091
    173 H76        -1.3150   -3.0650    1.3120 hc        1 MOL      0.057091
    174 N15        -4.9310   -0.6280    4.1690 n         1 MOL     -0.218245
    175 C58        -5.1890    0.2050    5.3530 c3        1 MOL     -0.183599
    176 H77        -4.5630   -0.1340    6.1780 h1        1 MOL      0.082684
    177 H78        -4.9570    1.2450    5.1240 h1        1 MOL      0.082684
    178 H79        -6.2390    0.1200    5.6350 h1        1 MOL      0.082684
    179 H80        -5.3710   -0.4150    3.2790 hn        1 MOL      0.205983
    180 Ca1         2.6220   -0.1310    0.1000 Ca        1 MOL      1.667587
    181 O27         5.1090    0.3930    1.2150 oh        1 MOL     -0.830435
    182 H81         4.6360    0.4280    2.0420 ho        1 MOL      0.410748
    183 H82         6.0250    0.2850    1.4690 ho        1 MOL      0.410748
    184 O28         0.6250    0.9190   -1.7120 oh        1 MOL     -0.830435
    185 O29         2.7870   -0.1120    2.8660 oh        1 MOL     -0.830435
    186 H83         1.1350    1.7100   -1.8860 ho        1 MOL      0.410748
    187 H84         1.8750   -0.2000    3.1360 ho        1 MOL      0.410748
    188 H85         0.8350    0.3420   -2.4460 ho        1 MOL      0.410748
    189 H86         3.2920   -0.5390    3.5550 ho        1 MOL      0.410748
@<TRIPOS>BOND
     1    1    2 1   
     2    1    4 1   
     3    1    5 1   
     4    1    6 1   
     5    2    3 2   
     6    2    7 1   
     7    7    8 1   
     8    7   15 1   
     9    8    9 1   
    10    8   11 1   
    11    8   16 1   
    12    9   10 2   
    13    9   19 1   
    14   11   12 1   
    15   11   17 1   
    16   11   18 1   
    17   12   13 1   
    18   12   14 1   
    19   19   20 1   
    20   19   27 1   
    21   20   21 1   
    22   20   23 1   
    23   20   28 1   
    24   21   22 2   
    25   21   38 1   
    26   23   24 1   
    27   23   25 1   
    28   23   29 1   
    29   24   26 1   
    30   24   30 1   
    31   24   31 1   
    32   25   32 1   
    33   25   33 1   
    34   25   34 1   
    35   26   35 1   
    36   26   36 1   
    37   26   37 1   
    38   38   39 1   
    39   38   46 1   
    40   39   40 1   
    41   39   42 1   
    42   39   47 1   
    43   40   41 2   
    44   40   50 1   
    45   42   43 1   
    46   42   48 1   
    47   42   49 1   
    48   43   44 1   
    49   43   45 1   
    50   50   51 1   
    51   50   54 1   
    52   51   52 1   
    53   51   55 1   
    54   51   56 1   
    55   52   53 2   
    56   52   57 1   
    57   57   58 1   
    58   57   65 1   
    59   58   59 1   
    60   58   61 1   
    61   58   66 1   
    62   59   60 2   
    63   59   69 1   
    64   61   62 1   
    65   61   67 1   
    66   61   68 1   
    67   62   63 1   
    68   62   64 1   
    69   69   70 1   
    70   69   73 1   
    71   70   71 1   
    72   70   74 1   
    73   70   75 1   
    74   71   72 2   
    75   71   76 1   
    76   76   77 1   
    77   76   85 1   
    78   77   78 1   
    79   77   80 1   
    80   77   86 1   
    81   78   79 2   
    82   78   93 1   
    83   80   81 1   
    84   80   87 1   
    85   80   88 1   
    86   81   82 1   
    87   81   89 1   
    88   81   90 1   
    89   82   83 1   
    90   82   84 2   
    91   83   91 1   
    92   83   92 1   
    93   93   94 1   
    94   93  100 1   
    95   94   95 1   
    96   94   97 1   
    97   94  101 1   
    98   95   96 2   
    99   95  109 1   
   100   97   98 1   
   101   97   99 1   
   102   97  102 1   
   103   98  103 1   
   104   98  104 1   
   105   98  105 1   
   106   99  106 1   
   107   99  107 1   
   108   99  108 1   
   109  109  110 1   
   110  109  117 1   
   111  110  111 1   
   112  110  113 1   
   113  110  118 1   
   114  111  112 2   
   115  111  123 1   
   116  113  114 1   
   117  113  119 1   
   118  113  120 1   
   119  114  115 1   
   120  114  116 2   
   121  115  121 1   
   122  115  122 1   
   123  123  124 1   
   124  123  135 1   
   125  124  125 1   
   126  124  127 1   
   127  124  136 1   
   128  125  126 2   
   129  125  144 1   
   130  127  128 1   
   131  127  137 1   
   132  127  138 1   
   133  128  129 ar  
   134  128  130 ar  
   135  129  131 ar  
   136  129  139 1   
   137  130  132 ar  
   138  130  140 1   
   139  131  133 ar  
   140  131  141 1   
   141  132  133 ar  
   142  132  142 1   
   143  133  134 1   
   144  134  143 1   
   145  144  145 1   
   146  144  153 1   
   147  145  146 1   
   148  145  148 1   
   149  145  154 1   
   150  146  147 2   
   151  146  159 1   
   152  148  149 1   
   153  148  155 1   
   154  148  156 1   
   155  149  150 1   
   156  149  157 1   
   157  149  158 1   
   158  150  151 1   
   159  150  152 1   
   160  159  160 1   
   161  159  168 1   
   162  160  161 1   
   163  160  163 1   
   164  160  169 1   
   165  161  162 2   
   166  161  174 1   
   167  163  164 1   
   168  163  170 1   
   169  163  171 1   
   170  164  165 1   
   171  164  172 1   
   172  164  173 1   
   173  165  166 1   
   174  165  167 1   
   175  174  175 1   
   176  174  179 1   
   177  175  176 1   
   178  175  177 1   
   179  175  178 1   
   180  181  182 1   
   181  181  183 1   
   182  184  186 1   
   183  184  188 1   
   184  185  187 1   
   185  185  189 1   
@<TRIPOS>SUBSTRUCTURE
     1 MOL         1 TEMP              0 ****  ****    0 ROOT
