@<TRIPOS>MOLECULE
MOL
  176   174     1     0     0
SMALL
resp


@<TRIPOS>ATOM
      1 C1          1.4130    3.3650    4.4140 c3        1 MOL     -0.564603
      2 C2          0.5440    2.9900    3.1420 c         1 MOL      0.616107
      3 O1          0.9770    2.9870    1.9960 o         1 MOL     -0.477684
      4 H1          0.9520    2.9390    5.3060 hc        1 MOL      0.163332
      5 H2          2.4200    2.9630    4.2980 hc        1 MOL      0.163332
      6 H3          1.4630    4.4490    4.5140 hc        1 MOL      0.163332
      7 N1         -0.7930    2.7590    3.4250 n         1 MOL     -0.561050
      8 C3         -1.7800    2.2890    2.4470 c3        1 MOL     -0.037551
      9 C4         -2.5070    3.4740    1.8250 c         1 MOL      0.583345
     10 O2         -3.6880    3.6890    1.8520 o         1 MOL     -0.453499
     11 C5         -2.6800    1.2560    3.1310 c3        1 MOL     -0.077743
     12 C6         -3.6040    0.5460    2.1400 c         1 MOL      0.575659
     13 O3         -4.8550    0.6170    2.3800 o         1 MOL     -0.641098
     14 O4         -3.0500   -0.0910    1.2070 o         1 MOL     -0.641098
     15 H4         -1.1520    2.8060    4.3610 hn        1 MOL      0.326628
     16 H5         -1.1610    1.7710    1.7000 h1        1 MOL      0.073769
     17 H6         -3.2910    1.6470    3.9420 hc        1 MOL      0.050985
     18 H7         -2.1510    0.4690    3.6710 hc        1 MOL      0.050985
     19 N2         -1.6590    4.3770    1.2790 n         1 MOL     -0.395517
     20 C7         -2.1430    5.5900    0.5360 c3        1 MOL      0.003889
     21 C8         -3.1400    5.4460   -0.6890 c         1 MOL      0.419371
     22 O5         -3.7480    6.4600   -1.1310 o         1 MOL     -0.549879
     23 C9         -0.9970    6.5330    0.2050 c3        1 MOL     -0.204737
     24 C10         0.0450    6.0340   -0.8310 c3        1 MOL      0.268540
     25 C11         1.3040    6.9710   -0.8720 c3        1 MOL      0.060951
     26 C12         2.2570    6.5870   -2.0060 c3        1 MOL     -0.127241
     27 N3          2.6060    5.1920   -1.8980 n4        1 MOL     -0.209007
     28 H8         -0.6620    4.3630    1.4360 hn        1 MOL      0.271258
     29 H9         -2.7410    6.1390    1.2570 h1        1 MOL      0.096949
     30 H10        -0.4820    6.6150    1.1630 hc        1 MOL      0.070554
     31 H11        -1.3320    7.5080   -0.1340 hc        1 MOL      0.070554
     32 H12        -0.4220    5.9980   -1.8170 hc        1 MOL     -0.068143
     33 H13         0.3540    5.0120   -0.6230 hc        1 MOL     -0.068143
     34 H14         1.8540    6.7500    0.0450 hc        1 MOL      0.001204
     35 H15         0.9640    8.0050   -0.8770 hc        1 MOL      0.001204
     36 H16         3.2030    7.1030   -1.8410 hx        1 MOL      0.113020
     37 H17         1.8680    6.7960   -3.0060 hx        1 MOL      0.113020
     38 H18         3.3530    5.0100   -2.5590 hn        1 MOL      0.303955
     39 H19         2.8930    4.9350   -0.9590 hn        1 MOL      0.303955
     40 H20         1.7820    4.6300   -2.0270 hn        1 MOL      0.303955
     41 N4         -3.2410    4.2650   -1.1380 n         1 MOL     -0.196599
     42 C13        -4.1510    3.8840   -2.2210 c3        1 MOL     -0.021231
     43 C14        -5.4910    3.2390   -1.7070 c         1 MOL      0.389510
     44 O6         -6.4580    3.0240   -2.4770 o         1 MOL     -0.541649
     45 C15        -3.4150    2.9150   -3.1380 c3        1 MOL     -0.252643
     46 C16        -2.8920    1.6620   -2.4300 c         1 MOL      0.874401
     47 O7         -2.2690    0.8450   -3.1210 o         1 MOL     -0.797393
     48 O8         -3.2170    1.4880   -1.2410 o         1 MOL     -0.797393
     49 H21        -2.7180    3.5240   -0.6950 hn        1 MOL      0.178874
     50 H22        -4.4970    4.7030   -2.8520 h1        1 MOL      0.113156
     51 H23        -2.5960    3.3100   -3.7370 hc        1 MOL      0.078061
     52 H24        -4.1290    2.4440   -3.8180 hc        1 MOL      0.078061
     53 N5         -5.4650    2.9040   -0.4530 n         1 MOL      0.066437
     54 C17        -6.5720    2.3580    0.1730 c3        1 MOL     -0.239965
     55 C18        -7.0440    0.9650   -0.1820 c         1 MOL      0.585139
     56 O9         -8.1520    0.5480    0.0850 o         1 MOL     -0.561316
     57 H25        -4.6210    2.9900    0.0990 hn        1 MOL      0.009663
     58 H26        -7.3860    3.0820    0.1490 h1        1 MOL      0.108454
     59 H27        -6.1850    2.2180    1.1890 h1        1 MOL      0.108454
     60 N6         -6.1470    0.1750   -0.7990 n         1 MOL     -0.364467
     61 C19        -6.3780   -1.2450   -1.1080 c3        1 MOL      0.005328
     62 C20        -6.0850   -2.2930   -0.0280 c         1 MOL      0.372864
     63 O10        -6.4590   -3.4870   -0.1200 o         1 MOL     -0.533010
     64 C21        -5.7840   -1.6630   -2.5260 c3        1 MOL     -0.202056
     65 C22        -4.2550   -2.0230   -2.4250 c         1 MOL      0.631470
     66 N7         -3.6900   -2.4190   -3.5450 n         1 MOL     -0.666981
     67 O11        -3.5370   -1.8420   -1.4200 o         1 MOL     -0.554666
     68 H28        -5.2230    0.5610   -0.9510 hn        1 MOL      0.248044
     69 H29        -7.4460   -1.3700   -1.2480 h1        1 MOL      0.124275
     70 H30        -5.9510   -0.8960   -3.2910 hc        1 MOL      0.079858
     71 H31        -6.2610   -2.6170   -2.7660 hc        1 MOL      0.079858
     72 H32        -4.2310   -2.5840   -4.3850 hn        1 MOL      0.323445
     73 H33        -2.7040   -2.6100   -3.5230 hn        1 MOL      0.323445
     74 N8         -5.5580   -1.8700    1.1300 n         1 MOL     -0.082544
     75 C23        -5.5990   -2.6180    2.3520 c3        1 MOL     -0.256739
     76 C24        -4.3040   -3.4570    2.6900 c         1 MOL      0.534295
     77 O12        -4.3090   -4.2180    3.6650 o         1 MOL     -0.589950
     78 H34        -5.1690   -0.9450    1.1790 hn        1 MOL      0.235711
     79 H35        -6.3600   -3.3900    2.2900 h1        1 MOL      0.131120
     80 H36        -5.8240   -1.9310    3.1610 h1        1 MOL      0.131120
     81 N9         -3.2350   -3.3160    1.9450 n         1 MOL     -0.144512
     82 C25        -1.8950   -3.8850    2.1200 c3        1 MOL      0.021208
     83 C26        -0.7360   -3.1200    1.6040 c         1 MOL      0.498472
     84 O13        -0.8750   -2.2220    0.7510 o         1 MOL     -0.585939
     85 C27        -1.9170   -5.2150    1.5540 c3        1 MOL     -0.214425
     86 C28        -2.0070   -5.3260    0.0030 ca        1 MOL      0.009795
     87 C29        -0.8970   -5.4420   -0.8200 ca        1 MOL     -0.051768
     88 C30        -3.2630   -5.4340   -0.6540 ca        1 MOL     -0.051768
     89 C31        -0.9190   -5.7190   -2.2190 ca        1 MOL     -0.351986
     90 C32        -3.3360   -5.6040   -2.0750 ca        1 MOL     -0.351986
     91 C33        -2.2220   -5.8420   -2.8890 ca        1 MOL      0.389790
     92 O14        -2.3800   -6.0190   -4.2680 oh        1 MOL     -0.525198
     93 H37        -3.3390   -2.5900    1.2440 hn        1 MOL      0.107597
     94 H38        -1.6600   -4.0230    3.1760 h1        1 MOL      0.077187
     95 H39        -2.7780   -5.7800    1.8840 hc        1 MOL      0.098098
     96 H40        -1.0570   -5.7460    1.9580 hc        1 MOL      0.098098
     97 H41         0.0650   -5.3780   -0.3240 ha        1 MOL      0.119628
     98 H42        -4.2280   -5.3050   -0.1770 ha        1 MOL      0.119628
     99 H43        -0.0020   -5.6890   -2.7860 ha        1 MOL      0.160352
    100 H44        -4.3130   -5.6830   -2.5180 ha        1 MOL      0.160352
    101 H45        -3.3260   -6.0350   -4.4230 ho        1 MOL      0.390031
    102 N10         0.4830   -3.4280    2.1330 n         1 MOL     -0.547962
    103 C34         1.7450   -2.6260    1.9530 c3        1 MOL      0.035328
    104 C35         2.7740   -3.3440    1.0980 c         1 MOL      0.435500
    105 O15         3.0370   -4.5440    1.2270 o         1 MOL     -0.549086
    106 C36         2.2970   -2.3270    3.3730 c3        1 MOL      0.047045
    107 C37         1.3660   -1.4240    4.1900 c3        1 MOL      0.098819
    108 C38         3.7470   -1.6720    3.2340 c3        1 MOL     -0.036018
    109 C39         1.7450   -1.1470    5.6310 c3        1 MOL     -0.243297
    110 H46         0.6130   -4.3050    2.6250 hn        1 MOL      0.341602
    111 H47         1.4430   -1.6600    1.5720 h1        1 MOL      0.144494
    112 H48         2.3870   -3.2530    3.9350 hc        1 MOL      0.017907
    113 H49         0.3720   -1.8910    4.2350 hc        1 MOL      0.008456
    114 H50         1.2790   -0.4700    3.6630 hc        1 MOL      0.008456
    115 H51         4.1020   -1.3890    4.2140 hc        1 MOL      0.001757
    116 H52         4.5160   -2.3900    2.9350 hc        1 MOL      0.001757
    117 H53         3.7750   -0.7910    2.5900 hc        1 MOL      0.001757
    118 H54         0.8500   -0.6480    5.9980 hc        1 MOL      0.059144
    119 H55         1.9750   -2.1250    6.0510 hc        1 MOL      0.059144
    120 H56         2.5240   -0.4130    5.7950 hc        1 MOL      0.059144
    121 N11         3.3890   -2.6260    0.2230 n         1 MOL     -0.175708
    122 C40         4.5730   -3.0590   -0.5190 c3        1 MOL      0.034882
    123 C41         5.9310   -2.4980   -0.1250 c         1 MOL      0.512923
    124 O16         6.0080   -1.4470    0.5510 o         1 MOL     -0.479356
    125 C42         4.2790   -2.7930   -1.9810 c3        1 MOL     -0.018388
    126 O17         4.3360   -1.4260   -2.2840 oh        1 MOL     -0.518248
    127 H57         3.1670   -1.6600    0.0110 hn        1 MOL      0.152855
    128 H58         4.7040   -4.1360   -0.3890 h1        1 MOL      0.070796
    129 H59         3.3250   -3.2820   -2.1830 h1        1 MOL      0.066831
    130 H60         4.9570   -3.3400   -2.6310 h1        1 MOL      0.066831
    131 H61         3.4660   -1.0660   -2.4990 ho        1 MOL      0.427621
    132 N12         7.0570   -2.9180   -0.7430 n         1 MOL     -0.493430
    133 C43         8.3670   -2.2940   -0.6420 c3        1 MOL      0.210163
    134 C44         8.3770   -0.8280   -1.0970 c         1 MOL      0.363237
    135 O18         9.0590    0.0450   -0.5560 o         1 MOL     -0.466560
    136 C45         9.2960   -3.2130   -1.5080 c3        1 MOL     -0.223163
    137 H62         6.9940   -3.7580   -1.2940 hn        1 MOL      0.283427
    138 H63         8.7750   -2.2650    0.3650 h1        1 MOL      0.059790
    139 H64        10.2860   -2.8260   -1.2590 hc        1 MOL      0.071348
    140 H65         9.2340   -4.2690   -1.2520 hc        1 MOL      0.071348
    141 H66         9.1540   -2.9910   -2.5630 hc        1 MOL      0.071348
    142 N13         7.6250   -0.5460   -2.1790 n         1 MOL     -0.231456
    143 C46         7.4680    0.8100   -2.6140 c3        1 MOL      0.029054
    144 C47         6.6940    1.7190   -1.6340 c         1 MOL      0.351575
    145 O19         7.1880    2.8620   -1.4170 o         1 MOL     -0.530043
    146 C48         6.6710    0.7630   -3.9310 c3        1 MOL     -0.245815
    147 H67         7.2570   -1.3100   -2.7350 hn        1 MOL      0.244871
    148 H68         8.4610    1.2310   -2.7880 h1        1 MOL      0.107421
    149 H69         7.2870    0.2990   -4.7030 hc        1 MOL      0.068657
    150 H70         5.7480    0.2350   -3.7200 hc        1 MOL      0.068657
    151 H71         6.3670    1.7550   -4.2640 hc        1 MOL      0.068657
    152 N14         5.6550    1.3290   -0.9310 n         1 MOL     -0.077807
    153 C49         4.8500    2.0430    0.0880 c3        1 MOL     -0.059874
    154 C50         5.6490    2.2810    1.3770 c         1 MOL      0.513696
    155 O20         5.5600    3.4030    1.9270 o         1 MOL     -0.563224
    156 C51         3.5800    1.2450    0.3570 c3        1 MOL      0.170109
    157 C52         2.5650    1.6330   -0.7620 c3        1 MOL     -0.233137
    158 C53         1.1150    1.0350   -0.6150 c         1 MOL      0.928938
    159 O21         0.9100   -0.0820   -0.1870 o         1 MOL     -0.841863
    160 O22         0.1060    1.6420   -1.0760 o         1 MOL     -0.841863
    161 H72         5.5330    0.3270   -1.0060 hn        1 MOL      0.085129
    162 H73         4.6360    3.0160   -0.3570 h1        1 MOL      0.032731
    163 H74         3.2040    1.5360    1.3320 hc        1 MOL     -0.025805
    164 H75         3.8270    0.1820    0.3360 hc        1 MOL     -0.025805
    165 H76         2.9380    1.3400   -1.7460 hc        1 MOL     -0.024764
    166 H77         2.4520    2.7150   -0.8240 hc        1 MOL     -0.024764
    167 N15         6.3390    1.2440    1.8410 n         1 MOL     -0.240698
    168 C54         7.4620    1.4090    2.7890 c3        1 MOL     -0.179765
    169 H78         7.1290    1.1510    3.7940 h1        1 MOL      0.094783
    170 H79         8.2820    0.7530    2.4990 h1        1 MOL      0.094783
    171 H80         7.8020    2.4450    2.7750 h1        1 MOL      0.094783
    172 H81         6.2760    0.3330    1.3950 hn        1 MOL      0.236197
    173 Ca1        -1.5370   -0.3580   -0.8540 Ca        1 MOL      1.746389
    174 O23        -0.8320   -2.6340   -2.1250 oh        1 MOL     -0.832699
    175 H82         0.0230   -2.8160   -2.5290 ho        1 MOL      0.396251
    176 H83        -1.1530   -3.4850   -1.8470 ho        1 MOL      0.396251
@<TRIPOS>BOND
     1    1    2 1   
     2    1    4 1   
     3    1    5 1   
     4    1    6 1   
     5    2    3 2   
     6    2    7 1   
     7    7    8 1   
     8    7   15 1   
     9    8    9 1   
    10    8   11 1   
    11    8   16 1   
    12    9   10 2   
    13    9   19 1   
    14   11   12 1   
    15   11   17 1   
    16   11   18 1   
    17   12   13 1   
    18   12   14 1   
    19   19   20 1   
    20   19   28 1   
    21   20   21 1   
    22   20   23 1   
    23   20   29 1   
    24   21   22 2   
    25   21   41 1   
    26   23   24 1   
    27   23   30 1   
    28   23   31 1   
    29   24   25 1   
    30   24   32 1   
    31   24   33 1   
    32   25   26 1   
    33   25   34 1   
    34   25   35 1   
    35   26   27 1   
    36   26   36 1   
    37   26   37 1   
    38   27   38 1   
    39   27   39 1   
    40   27   40 1   
    41   41   42 1   
    42   41   49 1   
    43   42   43 1   
    44   42   45 1   
    45   42   50 1   
    46   43   44 2   
    47   43   53 1   
    48   45   46 1   
    49   45   51 1   
    50   45   52 1   
    51   46   47 1   
    52   46   48 1   
    53   53   54 1   
    54   53   57 1   
    55   54   55 1   
    56   54   58 1   
    57   54   59 1   
    58   55   56 2   
    59   55   60 1   
    60   60   61 1   
    61   60   68 1   
    62   61   62 1   
    63   61   64 1   
    64   61   69 1   
    65   62   63 2   
    66   62   74 1   
    67   64   65 1   
    68   64   70 1   
    69   64   71 1   
    70   65   66 1   
    71   65   67 2   
    72   66   72 1   
    73   66   73 1   
    74   74   75 1   
    75   74   78 1   
    76   75   76 1   
    77   75   79 1   
    78   75   80 1   
    79   76   77 2   
    80   76   81 1   
    81   81   82 1   
    82   81   93 1   
    83   82   83 1   
    84   82   85 1   
    85   82   94 1   
    86   83   84 2   
    87   83  102 1   
    88   85   86 1   
    89   85   95 1   
    90   85   96 1   
    91   86   87 ar  
    92   86   88 ar  
    93   87   89 ar  
    94   87   97 1   
    95   88   90 ar  
    96   88   98 1   
    97   89   91 ar  
    98   89   99 1   
    99   90   91 ar  
   100   90  100 1   
   101   91   92 1   
   102   92  101 1   
   103  102  103 1   
   104  102  110 1   
   105  103  104 1   
   106  103  106 1   
   107  103  111 1   
   108  104  105 2   
   109  104  121 1   
   110  106  107 1   
   111  106  108 1   
   112  106  112 1   
   113  107  109 1   
   114  107  113 1   
   115  107  114 1   
   116  108  115 1   
   117  108  116 1   
   118  108  117 1   
   119  109  118 1   
   120  109  119 1   
   121  109  120 1   
   122  121  122 1   
   123  121  127 1   
   124  122  123 1   
   125  122  125 1   
   126  122  128 1   
   127  123  124 2   
   128  123  132 1   
   129  125  126 1   
   130  125  129 1   
   131  125  130 1   
   132  126  131 1   
   133  132  133 1   
   134  132  137 1   
   135  133  134 1   
   136  133  136 1   
   137  133  138 1   
   138  134  135 2   
   139  134  142 1   
   140  136  139 1   
   141  136  140 1   
   142  136  141 1   
   143  142  143 1   
   144  142  147 1   
   145  143  144 1   
   146  143  146 1   
   147  143  148 1   
   148  144  145 2   
   149  144  152 1   
   150  146  149 1   
   151  146  150 1   
   152  146  151 1   
   153  152  153 1   
   154  152  161 1   
   155  153  154 1   
   156  153  156 1   
   157  153  162 1   
   158  154  155 2   
   159  154  167 1   
   160  156  157 1   
   161  156  163 1   
   162  156  164 1   
   163  157  158 1   
   164  157  165 1   
   165  157  166 1   
   166  158  159 1   
   167  158  160 1   
   168  167  168 1   
   169  167  172 1   
   170  168  169 1   
   171  168  170 1   
   172  168  171 1   
   173  174  175 1   
   174  174  176 1   
@<TRIPOS>SUBSTRUCTURE
     1 MOL         1 TEMP              0 ****  ****    0 ROOT
