@<TRIPOS>MOLECULE
MOL
  189   185     1     0     0
SMALL
resp


@<TRIPOS>ATOM
      1 C1         -0.1310   -4.1760    6.1110 c3        1 MOL     -0.355017
      2 C2          0.2820   -3.6080    4.7200 c         1 MOL      0.752409
      3 O1          0.6040   -2.4170    4.5730 o         1 MOL     -0.629552
      4 H1          0.5900   -4.9330    6.4220 hc        1 MOL      0.087747
      5 H2         -0.1490   -3.3700    6.8430 hc        1 MOL      0.087747
      6 H3         -1.1210   -4.6260    6.0410 hc        1 MOL      0.087747
      7 N1          0.3680   -4.4600    3.6850 n         1 MOL     -0.618367
      8 C3          1.0370   -4.1460    2.4320 c3        1 MOL      0.305501
      9 C4          0.4780   -4.9150    1.1960 c         1 MOL      0.602130
     10 O2         -0.1390   -5.9690    1.3790 o         1 MOL     -0.605016
     11 C5          2.5250   -4.4360    2.6290 c3        1 MOL     -0.356160
     12 C6          3.4590   -3.4270    1.9930 c         1 MOL      0.795601
     13 O3          4.5960   -3.2480    2.4900 o         1 MOL     -0.701612
     14 O4          3.0990   -2.8110    0.9530 o         1 MOL     -0.701612
     15 H4          0.0330   -5.4040    3.8380 hn        1 MOL      0.293629
     16 H5          0.9300   -3.0780    2.2150 h1        1 MOL      0.029394
     17 H6          2.7600   -5.3690    2.1090 hc        1 MOL      0.076605
     18 H7          2.6370   -4.4930    3.7080 hc        1 MOL      0.076605
     19 N2          0.6310   -4.4010   -0.0470 n         1 MOL     -0.624239
     20 C7          0.2330   -5.0920   -1.3590 c3        1 MOL      0.139844
     21 C8          1.3940   -5.2480   -2.3140 c         1 MOL      0.442525
     22 O5          1.3900   -6.1450   -3.1550 o         1 MOL     -0.569328
     23 C9         -0.8580   -4.2460   -1.9370 c3        1 MOL      0.161818
     24 C10        -2.1210   -4.5760   -1.1260 c3        1 MOL      0.079655
     25 C11        -1.0170   -4.5360   -3.4680 c3        1 MOL     -0.334315
     26 C12        -3.4090   -3.8630   -1.6270 c3        1 MOL     -0.118490
     27 H8          1.0670   -3.4820   -0.0410 hn        1 MOL      0.336917
     28 H9         -0.0810   -6.1210   -1.2280 h1        1 MOL      0.061656
     29 H10        -0.5250   -3.2190   -1.8080 hc        1 MOL      0.013416
     30 H11        -1.8960   -4.2340   -0.1110 hc        1 MOL     -0.014269
     31 H12        -2.2650   -5.6550   -1.1210 hc        1 MOL     -0.014269
     32 H13        -0.1520   -4.2080   -4.0520 hc        1 MOL      0.073355
     33 H14        -1.1730   -5.6020   -3.6320 hc        1 MOL      0.073355
     34 H15        -1.8650   -3.9870   -3.8830 hc        1 MOL      0.073355
     35 H16        -3.1490   -2.8160   -1.7770 hc        1 MOL      0.012562
     36 H17        -3.7200   -4.3190   -2.5660 hc        1 MOL      0.012562
     37 H18        -4.1760   -3.9280   -0.8570 hc        1 MOL      0.012562
     38 N3          2.3740   -4.3080   -2.2560 n         1 MOL     -0.306077
     39 C13         3.5330   -4.2600   -3.0790 c3        1 MOL      0.137301
     40 C14         4.8830   -4.2140   -2.4090 c         1 MOL      0.345760
     41 O6          5.8310   -4.5080   -3.1370 o         1 MOL     -0.544701
     42 C15         3.4070   -3.0000   -3.9750 c3        1 MOL     -0.176110
     43 C16         2.9170   -1.7120   -3.1380 c         1 MOL      0.663998
     44 O7          3.1260   -1.6360   -1.9220 o         1 MOL     -0.649399
     45 O8          2.4340   -0.8050   -3.8420 o         1 MOL     -0.649399
     46 H19         2.3470   -3.5860   -1.5620 hn        1 MOL      0.184487
     47 H20         3.4980   -5.1120   -3.7600 h1        1 MOL      0.070542
     48 H21         2.8330   -3.1890   -4.8860 hc        1 MOL      0.045527
     49 H22         4.4250   -2.8190   -4.3000 hc        1 MOL      0.045527
     50 N4          5.0050   -3.7680   -1.1460 n         1 MOL     -0.224169
     51 C17         6.3420   -3.3700   -0.5930 c3        1 MOL     -0.163947
     52 C18         6.8710   -1.9080   -0.9070 c         1 MOL      0.455122
     53 O9          8.0060   -1.5810   -0.6710 o         1 MOL     -0.590604
     54 H23         4.2090   -3.3470   -0.6960 hn        1 MOL      0.089914
     55 H24         7.1260   -4.0660   -0.8820 h1        1 MOL      0.109121
     56 H25         6.2470   -3.4830    0.4900 h1        1 MOL      0.109121
     57 N5          6.0350   -1.0690   -1.5090 n         1 MOL     -0.071123
     58 C19         6.5570    0.1280   -2.1680 c3        1 MOL     -0.260677
     59 C20         7.1740    1.2030   -1.2250 c         1 MOL      0.535307
     60 O10         7.8260    2.1120   -1.7300 o         1 MOL     -0.562726
     61 C21         5.4680    0.9820   -2.8640 c3        1 MOL     -0.001811
     62 C22         4.3390    1.6630   -2.1010 c         1 MOL      0.654479
     63 O11         3.9770    1.1140   -1.0570 o         1 MOL     -0.680671
     64 O12         3.7200    2.6240   -2.6220 o         1 MOL     -0.680671
     65 H26         5.0520   -1.2960   -1.6480 hn        1 MOL      0.234339
     66 H27         7.3590   -0.1270   -2.8650 h1        1 MOL      0.126944
     67 H28         4.9850    0.4260   -3.6660 hc        1 MOL      0.014438
     68 H29         5.9930    1.7270   -3.4500 hc        1 MOL      0.014438
     69 N6          6.9430    1.1270    0.1080 n         1 MOL     -0.156531
     70 C23         7.4440    2.1230    1.0900 c3        1 MOL     -0.229417
     71 C24         6.5850    3.3470    1.3270 c         1 MOL      0.557353
     72 O13         6.9910    4.3650    1.9820 o         1 MOL     -0.612152
     73 H30         6.4070    0.3630    0.4810 hn        1 MOL      0.188738
     74 H31         8.4450    2.4160    0.7570 h1        1 MOL      0.091698
     75 H32         7.5630    1.6270    2.0480 h1        1 MOL      0.091698
     76 N7          5.3090    3.2680    0.9280 n         1 MOL     -0.127418
     77 C25         4.1750    4.0980    1.2840 c3        1 MOL     -0.097963
     78 C26         2.9390    3.2500    1.6370 c         1 MOL      0.449690
     79 O14         2.8720    2.0920    1.4010 o         1 MOL     -0.478760
     80 C27         3.8600    5.0400    0.0630 c3        1 MOL     -0.008647
     81 C28         4.9610    6.1100   -0.2370 c3        1 MOL     -0.060139
     82 C29         4.5750    7.1270   -1.2470 c         1 MOL      0.650688
     83 N8          5.4800    8.0180   -1.5740 n         1 MOL     -0.823985
     84 O15         3.4920    7.1110   -1.8390 o         1 MOL     -0.560528
     85 H33         4.9380    2.4630    0.4400 hn        1 MOL      0.073086
     86 H34         4.5000    4.7330    2.1190 h1        1 MOL      0.045532
     87 H35         2.9540    5.6160    0.2150 hc        1 MOL      0.040388
     88 H36         3.6210    4.4210   -0.7990 hc        1 MOL      0.040388
     89 H37         5.9450    5.6610   -0.3400 hc        1 MOL      0.023041
     90 H38         5.0600    6.7640    0.6260 hc        1 MOL      0.023041
     91 H39         6.4230    7.9290   -1.2160 hn        1 MOL      0.358540
     92 H40         5.1890    8.6400   -2.3110 hn        1 MOL      0.358540
     93 N9          1.8250    3.8960    1.9150 n         1 MOL     -0.313845
     94 C30         0.5020    3.2460    2.1730 c3        1 MOL     -0.006286
     95 C31        -0.5210    3.5790    1.1300 c         1 MOL      0.426404
     96 O16        -0.7600    4.7820    0.9060 o         1 MOL     -0.570356
     97 C32        -0.0920    3.4880    3.6390 c3        1 MOL      0.166488
     98 C33        -1.4990    3.0060    3.9570 c3        1 MOL     -0.238413
     99 C34         0.9890    2.9700    4.6300 c3        1 MOL     -0.238413
    100 H41         1.9190    4.8830    2.1200 hn        1 MOL      0.240008
    101 H42         0.6060    2.1610    2.1230 h1        1 MOL      0.080536
    102 H43        -0.0780    4.5550    3.8450 hc        1 MOL      0.004625
    103 H44        -2.1630    3.2130    3.1170 hc        1 MOL      0.045863
    104 H45        -1.5530    1.9880    4.3310 hc        1 MOL      0.045863
    105 H46        -1.9030    3.5940    4.7870 hc        1 MOL      0.045863
    106 H47         0.8350    3.4530    5.5980 hc        1 MOL      0.045863
    107 H48         1.1560    1.9020    4.5030 hc        1 MOL      0.045863
    108 H49         2.0060    3.2780    4.3850 hc        1 MOL      0.045863
    109 N10        -1.0850    2.5760    0.4220 n         1 MOL     -0.135165
    110 C35        -2.1510    2.7680   -0.5440 c3        1 MOL      0.148172
    111 C36        -3.4780    2.6990    0.2250 c         1 MOL      0.138478
    112 O17        -3.6020    2.1350    1.3420 o         1 MOL     -0.157392
    113 C37        -2.0310    1.6440   -1.5820 c3        1 MOL     -0.290243
    114 C38        -3.1010    1.5710   -2.6520 c         1 MOL      0.749629
    115 N11        -3.0350    2.4040   -3.6880 n         1 MOL     -0.883351
    116 O18        -4.0830    0.9660   -2.5290 o         1 MOL     -0.464681
    117 H50        -0.7700    1.6290    0.5850 hn        1 MOL      0.073373
    118 H51        -2.0990    3.7190   -1.0660 h1        1 MOL      0.037819
    119 H52        -2.1570    0.7190   -1.0140 hc        1 MOL      0.081192
    120 H53        -1.0560    1.6120   -2.0610 hc        1 MOL      0.081192
    121 H54        -2.3360    3.1350   -3.6470 hn        1 MOL      0.381738
    122 H55        -3.6520    2.3010   -4.4810 hn        1 MOL      0.381738
    123 N12        -4.6170    3.2810   -0.2830 n         1 MOL     -0.274139
    124 C39        -5.9120    3.1970    0.4120 c3        1 MOL      0.079218
    125 C40        -6.2580    1.7060    0.7280 c         1 MOL      0.361512
    126 O19        -6.8760    1.4880    1.7800 o         1 MOL     -0.615222
    127 C41        -6.9620    3.8110   -0.4950 c3        1 MOL      0.048715
    128 C42        -7.0660    3.2930   -1.9190 ca        1 MOL     -0.133444
    129 C43        -6.3140    3.8870   -2.9370 ca        1 MOL     -0.082433
    130 C44        -7.8170    2.0680   -2.1300 ca        1 MOL     -0.082433
    131 C45        -6.3900    3.3080   -4.1910 ca        1 MOL     -0.246653
    132 C46        -7.9000    1.5390   -3.4380 ca        1 MOL     -0.246653
    133 C47        -7.1310    2.1530   -4.4440 ca        1 MOL      0.335860
    134 O20        -7.0330    1.5560   -5.5820 oh        1 MOL     -0.567936
    135 H56        -4.5280    3.6540   -1.2170 hn        1 MOL      0.196562
    136 H57        -5.7470    3.8420    1.2680 h1        1 MOL      0.051336
    137 H58        -6.7870    4.8920   -0.5470 hc        1 MOL      0.006365
    138 H59        -7.8700    3.7210    0.1030 hc        1 MOL      0.006365
    139 H60        -5.7330    4.7750   -2.7230 ha        1 MOL      0.104169
    140 H61        -8.1120    1.4970   -1.2470 ha        1 MOL      0.104169
    141 H62        -5.8910    3.7930   -5.0160 ha        1 MOL      0.110842
    142 H63        -8.2330    0.5300   -3.6340 ha        1 MOL      0.110842
    143 H64        -7.6870    0.9070   -5.8200 ho        1 MOL      0.447107
    144 N13        -5.9630    0.6970   -0.0940 n         1 MOL      0.352600
    145 C48        -6.3820   -0.7320    0.1320 c3        1 MOL      0.004490
    146 C49        -5.5890   -1.4130    1.2730 c         1 MOL      0.260261
    147 O21        -5.9590   -2.5470    1.6620 o         1 MOL     -0.480891
    148 C50        -6.2920   -1.4680   -1.2280 c3        1 MOL      0.135891
    149 C51        -7.1210   -2.7280   -1.3140 c3        1 MOL     -0.152490
    150 C52        -8.6280   -2.3230   -1.2050 c         1 MOL      0.693299
    151 O22        -9.3750   -3.1860   -0.7200 o         1 MOL     -0.719825
    152 O23        -8.9920   -1.2130   -1.5840 o         1 MOL     -0.719825
    153 H65        -5.4010    0.8590   -0.9130 hn        1 MOL     -0.110691
    154 H66        -7.4510   -0.7060    0.3440 h1        1 MOL      0.080481
    155 H67        -5.2710   -1.6860   -1.5370 hc        1 MOL     -0.017508
    156 H68        -6.7450   -0.8090   -1.9620 hc        1 MOL     -0.017508
    157 H69        -6.8860   -3.4330   -0.5140 hc        1 MOL      0.000326
    158 H70        -7.0240   -3.2020   -2.2860 hc        1 MOL      0.000326
    159 N14        -4.5110   -0.8020    1.7530 n         1 MOL     -0.021423
    160 C53        -3.7000   -1.1380    2.9430 c3        1 MOL      0.048907
    161 C54        -4.1800   -0.3270    4.1720 c         1 MOL      0.385277
    162 O24        -4.3170   -0.9660    5.2180 o         1 MOL     -0.550642
    163 C55        -2.2200   -0.8310    2.6940 c3        1 MOL     -0.055343
    164 C56        -1.5900   -1.6590    1.5310 c3        1 MOL      0.183568
    165 C57        -0.4030   -0.9390    0.8860 c         1 MOL      0.655564
    166 O25         0.2530   -1.5890   -0.0150 o         1 MOL     -0.668783
    167 O26         0.0800    0.1330    1.3040 o         1 MOL     -0.668783
    168 H71        -4.4600    0.1440    1.4000 hn        1 MOL     -0.104567
    169 H72        -3.7830   -2.2240    3.0140 h1        1 MOL      0.041287
    170 H73        -1.5680   -0.9520    3.5540 hc        1 MOL      0.012478
    171 H74        -2.2250    0.2100    2.3750 hc        1 MOL      0.012478
    172 H75        -2.2710   -1.7770    0.6780 hc        1 MOL     -0.057771
    173 H76        -1.2790   -2.6190    1.9400 hc        1 MOL     -0.057771
    174 N15        -4.6300    0.9560    4.0300 n         1 MOL     -0.030436
    175 C58        -5.1990    1.8470    5.0820 c3        1 MOL     -0.158150
    176 H77        -6.0250    2.4220    4.6630 h1        1 MOL      0.067694
    177 H78        -5.5630    1.2440    5.9130 h1        1 MOL      0.067694
    178 H79        -4.4270    2.5290    5.4380 h1        1 MOL      0.067694
    179 H80        -4.4190    1.4340    3.1640 hn        1 MOL      0.064470
    180 Ca1         2.4910   -0.3450    0.3600 Ca        1 MOL      1.664283
    181 O27         2.2010   -0.5160    3.0910 oh        1 MOL     -0.819855
    182 H81         1.2790   -0.6090    3.3040 ho        1 MOL      0.402119
    183 H82         2.6380   -0.4470    3.9400 ho        1 MOL      0.402119
    184 O28         4.8580   -0.4990    1.5440 oh        1 MOL     -0.819855
    185 H83         4.8550   -1.4090    1.8280 ho        1 MOL      0.402119
    186 H84         5.0500   -0.0090    2.3450 ho        1 MOL      0.402119
    187 O29         1.3840    0.7090   -1.9170 oh        1 MOL     -0.819855
    188 H85         1.6840    0.1140   -2.6030 ho        1 MOL      0.402119
    189 H86         1.9240    1.4890   -2.0240 ho        1 MOL      0.402119
@<TRIPOS>BOND
     1    1    2 1   
     2    1    4 1   
     3    1    5 1   
     4    1    6 1   
     5    2    3 2   
     6    2    7 1   
     7    7    8 1   
     8    7   15 1   
     9    8    9 1   
    10    8   11 1   
    11    8   16 1   
    12    9   10 2   
    13    9   19 1   
    14   11   12 1   
    15   11   17 1   
    16   11   18 1   
    17   12   13 1   
    18   12   14 1   
    19   19   20 1   
    20   19   27 1   
    21   20   21 1   
    22   20   23 1   
    23   20   28 1   
    24   21   22 2   
    25   21   38 1   
    26   23   24 1   
    27   23   25 1   
    28   23   29 1   
    29   24   26 1   
    30   24   30 1   
    31   24   31 1   
    32   25   32 1   
    33   25   33 1   
    34   25   34 1   
    35   26   35 1   
    36   26   36 1   
    37   26   37 1   
    38   38   39 1   
    39   38   46 1   
    40   39   40 1   
    41   39   42 1   
    42   39   47 1   
    43   40   41 2   
    44   40   50 1   
    45   42   43 1   
    46   42   48 1   
    47   42   49 1   
    48   43   44 1   
    49   43   45 1   
    50   50   51 1   
    51   50   54 1   
    52   51   52 1   
    53   51   55 1   
    54   51   56 1   
    55   52   53 2   
    56   52   57 1   
    57   57   58 1   
    58   57   65 1   
    59   58   59 1   
    60   58   61 1   
    61   58   66 1   
    62   59   60 2   
    63   59   69 1   
    64   61   62 1   
    65   61   67 1   
    66   61   68 1   
    67   62   63 1   
    68   62   64 1   
    69   69   70 1   
    70   69   73 1   
    71   70   71 1   
    72   70   74 1   
    73   70   75 1   
    74   71   72 2   
    75   71   76 1   
    76   76   77 1   
    77   76   85 1   
    78   77   78 1   
    79   77   80 1   
    80   77   86 1   
    81   78   79 2   
    82   78   93 1   
    83   80   81 1   
    84   80   87 1   
    85   80   88 1   
    86   81   82 1   
    87   81   89 1   
    88   81   90 1   
    89   82   83 1   
    90   82   84 2   
    91   83   91 1   
    92   83   92 1   
    93   93   94 1   
    94   93  100 1   
    95   94   95 1   
    96   94   97 1   
    97   94  101 1   
    98   95   96 2   
    99   95  109 1   
   100   97   98 1   
   101   97   99 1   
   102   97  102 1   
   103   98  103 1   
   104   98  104 1   
   105   98  105 1   
   106   99  106 1   
   107   99  107 1   
   108   99  108 1   
   109  109  110 1   
   110  109  117 1   
   111  110  111 1   
   112  110  113 1   
   113  110  118 1   
   114  111  112 2   
   115  111  123 1   
   116  113  114 1   
   117  113  119 1   
   118  113  120 1   
   119  114  115 1   
   120  114  116 2   
   121  115  121 1   
   122  115  122 1   
   123  123  124 1   
   124  123  135 1   
   125  124  125 1   
   126  124  127 1   
   127  124  136 1   
   128  125  126 2   
   129  125  144 1   
   130  127  128 1   
   131  127  137 1   
   132  127  138 1   
   133  128  129 ar  
   134  128  130 ar  
   135  129  131 ar  
   136  129  139 1   
   137  130  132 ar  
   138  130  140 1   
   139  131  133 ar  
   140  131  141 1   
   141  132  133 ar  
   142  132  142 1   
   143  133  134 1   
   144  134  143 1   
   145  144  145 1   
   146  144  153 1   
   147  145  146 1   
   148  145  148 1   
   149  145  154 1   
   150  146  147 2   
   151  146  159 1   
   152  148  149 1   
   153  148  155 1   
   154  148  156 1   
   155  149  150 1   
   156  149  157 1   
   157  149  158 1   
   158  150  151 1   
   159  150  152 1   
   160  159  160 1   
   161  159  168 1   
   162  160  161 1   
   163  160  163 1   
   164  160  169 1   
   165  161  162 2   
   166  161  174 1   
   167  163  164 1   
   168  163  170 1   
   169  163  171 1   
   170  164  165 1   
   171  164  172 1   
   172  164  173 1   
   173  165  166 1   
   174  165  167 1   
   175  174  175 1   
   176  174  179 1   
   177  175  176 1   
   178  175  177 1   
   179  175  178 1   
   180  181  182 1   
   181  181  183 1   
   182  184  185 1   
   183  184  186 1   
   184  187  188 1   
   185  187  189 1   
@<TRIPOS>SUBSTRUCTURE
     1 MOL         1 TEMP              0 ****  ****    0 ROOT
