@<TRIPOS>MOLECULE
MOL
  189   185     1     0     0
SMALL
resp


@<TRIPOS>ATOM
      1 C1          0.7600    2.1320    5.3840 c3        1 MOL     -0.414785
      2 C2          0.1420    2.0190    3.9740 c         1 MOL      0.657980
      3 O1          0.7270    2.4610    2.9650 o         1 MOL     -0.651147
      4 H1          1.8400    2.0000    5.3180 hc        1 MOL      0.108037
      5 H2          0.5400    3.1150    5.8010 hc        1 MOL      0.108037
      6 H3          0.3400    1.3600    6.0290 hc        1 MOL      0.108037
      7 N1         -1.0660    1.5200    3.8880 n         1 MOL     -0.464416
      8 C3         -1.8160    1.4030    2.6470 c3        1 MOL      0.124942
      9 C4         -2.3940    2.7290    2.0690 c         1 MOL      0.398060
     10 O2         -3.4710    3.2060    2.4700 o         1 MOL     -0.489247
     11 C5         -2.9400    0.3330    2.8840 c3        1 MOL     -0.245592
     12 C6         -3.8310    0.0300    1.6690 c         1 MOL      0.745064
     13 O3         -3.2470    0.1690    0.5670 o         1 MOL     -0.662541
     14 O4         -5.0410   -0.3430    1.7370 o         1 MOL     -0.662541
     15 H4         -1.5100    1.1020    4.6910 hn        1 MOL      0.303751
     16 H5         -1.0980    0.9940    1.9480 h1        1 MOL      0.045334
     17 H6         -3.5460    0.6630    3.7240 hc        1 MOL      0.053406
     18 H7         -2.4800   -0.6000    3.2210 hc        1 MOL      0.053406
     19 N2         -1.5150    3.4330    1.3100 n         1 MOL     -0.230638
     20 C7         -1.7690    4.8530    0.9450 c3        1 MOL      0.007476
     21 C8         -2.9770    5.1080   -0.0110 c         1 MOL      0.470927
     22 O5         -3.5550    6.2230   -0.0550 o         1 MOL     -0.551069
     23 C9         -0.5360    5.4430    0.3080 c3        1 MOL     -0.365245
     24 C10         0.4770    5.8640    1.3810 c3        1 MOL      0.279950
     25 C11         0.0510    6.8780    2.4050 c3        1 MOL     -0.021777
     26 C12         1.3140    7.5160    3.1310 c3        1 MOL     -0.129098
     27 N3          2.0060    6.6220    4.0270 n4        1 MOL     -0.120241
     28 H8         -0.7050    2.9470    0.9480 hn        1 MOL      0.365326
     29 H9         -1.9950    5.3960    1.8650 h1        1 MOL      0.034800
     30 H10        -0.8980    6.2660   -0.2990 hc        1 MOL      0.101551
     31 H11        -0.0950    4.6950   -0.3560 hc        1 MOL      0.101551
     32 H12         1.3810    6.2760    0.9350 hc        1 MOL     -0.068546
     33 H13         0.7410    4.9860    1.9640 hc        1 MOL     -0.068546
     34 H14        -0.4850    6.3710    3.2080 hc        1 MOL      0.062878
     35 H15        -0.5110    7.6910    1.9280 hc        1 MOL      0.062878
     36 H16         1.0110    8.4050    3.6810 hx        1 MOL      0.099747
     37 H17         2.1440    7.5940    2.4190 hx        1 MOL      0.099747
     38 H18         2.8150    7.0920    4.4080 hn        1 MOL      0.273249
     39 H19         1.4000    6.3660    4.7940 hn        1 MOL      0.273249
     40 H20         2.3420    5.7630    3.6330 hn        1 MOL      0.273249
     41 N4         -3.3450    4.0260   -0.7400 n         1 MOL     -0.228114
     42 C13        -4.4280    4.1110   -1.8600 c3        1 MOL     -0.031402
     43 C14        -5.7230    3.3430   -1.6560 c         1 MOL      0.392378
     44 O6         -6.7120    3.6630   -2.3100 o         1 MOL     -0.513998
     45 C15        -3.7850    3.7700   -3.1870 c3        1 MOL     -0.191504
     46 C16        -3.0130    2.4910   -3.1680 c         1 MOL      0.876591
     47 O7         -2.2340    2.3090   -4.1350 o         1 MOL     -0.768887
     48 O8         -3.0990    1.5580   -2.3410 o         1 MOL     -0.768887
     49 H21        -2.7960    3.1810   -0.7020 hn        1 MOL      0.114318
     50 H22        -4.6400    5.1770   -1.8560 h1        1 MOL      0.108558
     51 H23        -3.0560    4.5480   -3.4000 hc        1 MOL      0.059844
     52 H24        -4.5300    3.8150   -3.9770 hc        1 MOL      0.059844
     53 N5         -5.7200    2.4170   -0.7310 n         1 MOL     -0.019987
     54 C17        -6.8880    1.8060   -0.1170 c3        1 MOL     -0.321942
     55 C18        -7.4600    0.7140   -1.0010 c         1 MOL      0.576369
     56 O9         -8.6180    0.7330   -1.4610 o         1 MOL     -0.559853
     57 H25        -4.8030    2.2530   -0.3330 hn        1 MOL      0.112985
     58 H26        -7.5230    2.6820    0.0010 h1        1 MOL      0.134915
     59 H27        -6.6170    1.3710    0.8400 h1        1 MOL      0.134915
     60 N6         -6.5980   -0.2880   -1.2510 n         1 MOL     -0.263720
     61 C19        -6.9570   -1.5650   -1.8240 c3        1 MOL      0.102298
     62 C20        -7.0480   -2.6790   -0.7290 c         1 MOL      0.285160
     63 O10        -7.7000   -3.7480   -0.9230 o         1 MOL     -0.532168
     64 C21        -6.0170   -1.9110   -2.9820 c3        1 MOL     -0.279535
     65 C22        -4.5340   -1.7550   -2.5920 c         1 MOL      0.763764
     66 O11        -4.1130   -1.9810   -1.4550 o         1 MOL     -0.739456
     67 O12        -3.6860   -1.5260   -3.4550 o         1 MOL     -0.739456
     68 H28        -5.6950   -0.1470   -0.8260 hn        1 MOL      0.104187
     69 H29        -7.9670   -1.5060   -2.2200 h1        1 MOL      0.099955
     70 H30        -6.3050   -1.3650   -3.8770 hc        1 MOL      0.089609
     71 H31        -6.0910   -2.9820   -3.1960 hc        1 MOL      0.089609
     72 N7         -6.5550   -2.4760    0.4960 n         1 MOL     -0.038974
     73 C23        -6.5430   -3.4260    1.6080 c3        1 MOL     -0.204884
     74 C24        -5.3020   -4.2320    1.6380 c         1 MOL      0.617118
     75 O13        -5.2410   -5.1930    2.3850 o         1 MOL     -0.575971
     76 H32        -6.0810   -1.6090    0.6930 hn        1 MOL      0.138277
     77 H33        -7.4320   -4.0560    1.5810 h1        1 MOL      0.101131
     78 H34        -6.4790   -2.9130    2.5640 h1        1 MOL      0.101131
     79 N8         -4.2160   -3.7480    0.9930 n         1 MOL     -0.175157
     80 C25        -2.9530   -4.3560    0.9610 c3        1 MOL     -0.471001
     81 C26        -1.7560   -3.4400    1.0800 c         1 MOL      0.976875
     82 O14        -1.7710   -2.3770    0.4650 o         1 MOL     -0.743919
     83 C27        -2.7860   -5.3700   -0.2360 c3        1 MOL      0.547209
     84 C28        -3.5770   -6.6790   -0.0600 c3        1 MOL     -0.573266
     85 O15        -3.2090   -4.7750   -1.4200 oh        1 MOL     -0.664109
     86 H35        -4.3890   -2.9700    0.3800 hn        1 MOL      0.139519
     87 H36        -3.0010   -5.0300    1.8220 h1        1 MOL      0.114941
     88 H37        -1.7080   -5.4760   -0.3860 h1        1 MOL     -0.035889
     89 H38        -3.5140   -3.8700   -1.2690 ho        1 MOL      0.490455
     90 H39        -3.3210   -7.1480    0.8920 hc        1 MOL      0.148491
     91 H40        -4.6600   -6.5230   -0.0490 hc        1 MOL      0.148491
     92 H41        -3.2660   -7.3520   -0.8520 hc        1 MOL      0.148491
     93 N9         -0.6100   -3.8540    1.6310 n         1 MOL     -0.742686
     94 C29         0.6030   -2.9700    1.8250 c3        1 MOL     -0.027123
     95 C30         1.7300   -3.5340    1.0640 c         1 MOL      0.632688
     96 O16         2.2070   -4.6420    1.3080 o         1 MOL     -0.561160
     97 C31         0.9410   -2.9580    3.2600 c3        1 MOL      0.166229
     98 C32        -0.1950   -2.2340    4.0520 c3        1 MOL      0.055304
     99 C33         2.2310   -2.1050    3.4750 c3        1 MOL     -0.307454
    100 C34        -0.1810   -2.4450    5.5380 c3        1 MOL     -0.176556
    101 H42        -0.6780   -4.7020    2.1760 hn        1 MOL      0.325940
    102 H43         0.4810   -1.9400    1.5030 h1        1 MOL      0.112495
    103 H44         1.2250   -3.9510    3.6110 hc        1 MOL      0.036831
    104 H45        -1.1780   -2.5870    3.7360 hc        1 MOL      0.011031
    105 H46        -0.2270   -1.1590    3.8680 hc        1 MOL      0.011031
    106 H47         3.0840   -2.3950    2.8690 hc        1 MOL      0.046552
    107 H48         2.0790   -1.0870    3.0950 hc        1 MOL      0.046552
    108 H49         2.5930   -2.0620    4.5110 hc        1 MOL      0.046552
    109 H50         0.7050   -2.1360    6.0920 hc        1 MOL      0.037111
    110 H51        -1.0230   -1.8830    5.9410 hc        1 MOL      0.037111
    111 H52        -0.2530   -3.5120    5.7500 hc        1 MOL      0.037111
    112 N10         2.3330   -2.6530    0.2240 n         1 MOL     -0.257723
    113 C35         3.4390   -3.0770   -0.6690 c3        1 MOL     -0.041426
    114 C36         4.8300   -2.8470   -0.0980 c         1 MOL      0.310942
    115 O17         4.9110   -2.3370    1.0220 o         1 MOL     -0.358342
    116 C37         3.3150   -2.3520   -2.0420 c3        1 MOL      0.109544
    117 C38         2.1860   -2.8650   -2.9530 c3        1 MOL     -0.214328
    118 O18         3.2440   -0.9270   -1.9050 oh        1 MOL     -0.554709
    119 H53         1.9980   -1.7050    0.1710 hn        1 MOL      0.255052
    120 H54         3.2520   -4.1400   -0.7910 h1        1 MOL      0.080795
    121 H55         4.2290   -2.5070   -2.6110 h1        1 MOL      0.056231
    122 H56         2.2910   -0.8390   -1.9160 ho        1 MOL      0.379232
    123 H57         1.2830   -3.1740   -2.4210 hc        1 MOL      0.068936
    124 H58         1.7810   -2.0800   -3.5880 hc        1 MOL      0.068936
    125 H59         2.6140   -3.6400   -3.5880 hc        1 MOL      0.068936
    126 N11         5.8820   -3.1180   -0.8700 n         1 MOL     -0.134719
    127 C39         7.2830   -2.9180   -0.4810 c3        1 MOL     -0.259636
    128 C40         7.6200   -1.4710   -0.6680 c         1 MOL      0.492815
    129 O19         8.3100   -0.8910    0.1530 o         1 MOL     -0.439118
    130 C41         8.2970   -3.7310   -1.2540 c3        1 MOL      0.432836
    131 C42         9.6550   -3.8290   -0.5910 c3        1 MOL     -0.315378
    132 O20         7.7930   -5.1460   -1.3220 oh        1 MOL     -0.621209
    133 H60         5.6990   -3.6000   -1.7360 hn        1 MOL      0.198724
    134 H61         7.2930   -3.1010    0.5980 h1        1 MOL      0.143189
    135 H62         8.2870   -3.4240   -2.3060 h1        1 MOL     -0.018843
    136 H63         6.8410   -5.1540   -1.3830 ho        1 MOL      0.356889
    137 H64        10.4270   -4.1910   -1.2750 hc        1 MOL      0.101391
    138 H65        10.0190   -2.8270   -0.3820 hc        1 MOL      0.101391
    139 H66         9.7400   -4.4220    0.3230 hc        1 MOL      0.101391
    140 N12         7.0850   -0.8510   -1.7470 n         1 MOL     -0.458275
    141 C43         7.1190    0.6210   -1.7990 c3        1 MOL      0.065827
    142 C44         6.5110    1.2230   -0.5240 c         1 MOL      0.193171
    143 O21         7.1520    1.9390    0.1560 o         1 MOL     -0.438024
    144 C45         6.1470    1.0030   -2.9900 c3        1 MOL     -0.370515
    145 C46         6.0870    2.4710   -3.1820 c3        1 MOL      0.130391
    146 C47         5.3650    2.7060   -4.5160 c3        1 MOL     -0.186844
    147 C48         4.8880    4.1650   -4.6500 c3        1 MOL      0.037164
    148 N13         5.9430    5.1740   -4.8800 n4        1 MOL     -0.381996
    149 H67         6.4320   -1.3560   -2.3370 hn        1 MOL      0.271437
    150 H68         8.1030    1.0600   -1.9580 h1        1 MOL      0.111900
    151 H69         5.1630    0.5340   -2.9490 hc        1 MOL      0.136736
    152 H70         6.5960    0.5660   -3.8740 hc        1 MOL      0.136736
    153 H71         7.0600    2.9590   -3.2170 hc        1 MOL      0.020235
    154 H72         5.5320    3.0000   -2.4090 hc        1 MOL      0.020235
    155 H73         4.4850    2.0590   -4.5210 hc        1 MOL      0.086979
    156 H74         5.9380    2.4700   -5.4000 hc        1 MOL      0.086979
    157 H75         4.3300    4.4070   -3.7370 hx        1 MOL      0.101780
    158 H76         4.1880    4.2550   -5.4760 hx        1 MOL      0.101780
    159 H77         6.4410    4.9770   -5.7360 hn        1 MOL      0.333232
    160 H78         5.4390    6.0340   -5.0580 hn        1 MOL      0.333232
    161 H79         6.7150    5.2450   -4.2310 hn        1 MOL      0.333232
    162 N14         5.2360    0.8440   -0.1960 n         1 MOL      0.152136
    163 C49         4.4290    1.4510    0.8810 c3        1 MOL     -0.047282
    164 C50         4.8380    1.2870    2.3330 c         1 MOL      0.245632
    165 O22         4.8300    2.2310    3.1610 o         1 MOL     -0.535738
    166 C51         2.9430    0.9620    0.8410 c3        1 MOL      0.118195
    167 C52         2.0910    1.5230   -0.2690 c3        1 MOL     -0.408438
    168 C53         0.8340    0.7150   -0.5280 c         1 MOL      0.789528
    169 O23        -0.2840    1.1870   -0.3710 o         1 MOL     -0.742949
    170 O24         0.8090   -0.5140   -0.8700 o         1 MOL     -0.742949
    171 H80         4.8110    0.0910   -0.7180 hn        1 MOL     -0.047601
    172 H81         4.3890    2.5130    0.6690 h1        1 MOL      0.059405
    173 H82         2.3970    1.1740    1.7570 hc        1 MOL      0.054050
    174 H83         2.9960   -0.1250    0.7780 hc        1 MOL      0.054050
    175 H84         2.7240    1.5360   -1.1530 hc        1 MOL      0.088159
    176 H85         1.7820    2.5010    0.1110 hc        1 MOL      0.088159
    177 N15         5.5320    0.1570    2.6200 n         1 MOL      0.076917
    178 C54         6.2930   -0.0480    3.8630 c3        1 MOL     -0.283223
    179 H86         7.3310   -0.2720    3.6190 h1        1 MOL      0.107577
    180 H87         6.2490    0.8570    4.4690 h1        1 MOL      0.107577
    181 H88         5.8630   -0.8800    4.4210 h1        1 MOL      0.107577
    182 H89         5.5460   -0.5640    1.9190 hn        1 MOL      0.084331
    183 Ca1        -1.8750   -0.5440   -1.4820 Ca        1 MOL      1.820652
    184 O25        -0.6540    0.3570   -3.5590 oh        1 MOL     -0.862212
    185 H90        -0.4540   -0.1230   -4.3580 ho        1 MOL      0.402839
    186 H91        -1.1890    1.0910   -3.8440 ho        1 MOL      0.402839
    187 O26        -1.2530   -2.5690   -2.9470 oh        1 MOL     -0.862212
    188 H92        -1.9820   -3.1800   -3.0440 ho        1 MOL      0.402839
    189 H93        -0.8850   -2.4900   -3.8240 ho        1 MOL      0.402839
@<TRIPOS>BOND
     1    1    2 1   
     2    1    4 1   
     3    1    5 1   
     4    1    6 1   
     5    2    3 2   
     6    2    7 1   
     7    7    8 1   
     8    7   15 1   
     9    8    9 1   
    10    8   11 1   
    11    8   16 1   
    12    9   10 2   
    13    9   19 1   
    14   11   12 1   
    15   11   17 1   
    16   11   18 1   
    17   12   13 1   
    18   12   14 1   
    19   19   20 1   
    20   19   28 1   
    21   20   21 1   
    22   20   23 1   
    23   20   29 1   
    24   21   22 2   
    25   21   41 1   
    26   23   24 1   
    27   23   30 1   
    28   23   31 1   
    29   24   25 1   
    30   24   32 1   
    31   24   33 1   
    32   25   26 1   
    33   25   34 1   
    34   25   35 1   
    35   26   27 1   
    36   26   36 1   
    37   26   37 1   
    38   27   38 1   
    39   27   39 1   
    40   27   40 1   
    41   41   42 1   
    42   41   49 1   
    43   42   43 1   
    44   42   45 1   
    45   42   50 1   
    46   43   44 2   
    47   43   53 1   
    48   45   46 1   
    49   45   51 1   
    50   45   52 1   
    51   46   47 1   
    52   46   48 1   
    53   53   54 1   
    54   53   57 1   
    55   54   55 1   
    56   54   58 1   
    57   54   59 1   
    58   55   56 2   
    59   55   60 1   
    60   60   61 1   
    61   60   68 1   
    62   61   62 1   
    63   61   64 1   
    64   61   69 1   
    65   62   63 2   
    66   62   72 1   
    67   64   65 1   
    68   64   70 1   
    69   64   71 1   
    70   65   66 1   
    71   65   67 1   
    72   72   73 1   
    73   72   76 1   
    74   73   74 1   
    75   73   77 1   
    76   73   78 1   
    77   74   75 2   
    78   74   79 1   
    79   79   80 1   
    80   79   86 1   
    81   80   81 1   
    82   80   83 1   
    83   80   87 1   
    84   81   82 2   
    85   81   93 1   
    86   83   84 1   
    87   83   85 1   
    88   83   88 1   
    89   84   90 1   
    90   84   91 1   
    91   84   92 1   
    92   85   89 1   
    93   93   94 1   
    94   93  101 1   
    95   94   95 1   
    96   94   97 1   
    97   94  102 1   
    98   95   96 2   
    99   95  112 1   
   100   97   98 1   
   101   97   99 1   
   102   97  103 1   
   103   98  100 1   
   104   98  104 1   
   105   98  105 1   
   106   99  106 1   
   107   99  107 1   
   108   99  108 1   
   109  100  109 1   
   110  100  110 1   
   111  100  111 1   
   112  112  113 1   
   113  112  119 1   
   114  113  114 1   
   115  113  116 1   
   116  113  120 1   
   117  114  115 2   
   118  114  126 1   
   119  116  117 1   
   120  116  118 1   
   121  116  121 1   
   122  117  123 1   
   123  117  124 1   
   124  117  125 1   
   125  118  122 1   
   126  126  127 1   
   127  126  133 1   
   128  127  128 1   
   129  127  130 1   
   130  127  134 1   
   131  128  129 2   
   132  128  140 1   
   133  130  131 1   
   134  130  132 1   
   135  130  135 1   
   136  131  137 1   
   137  131  138 1   
   138  131  139 1   
   139  132  136 1   
   140  140  141 1   
   141  140  149 1   
   142  141  142 1   
   143  141  144 1   
   144  141  150 1   
   145  142  143 2   
   146  142  162 1   
   147  144  145 1   
   148  144  151 1   
   149  144  152 1   
   150  145  146 1   
   151  145  153 1   
   152  145  154 1   
   153  146  147 1   
   154  146  155 1   
   155  146  156 1   
   156  147  148 1   
   157  147  157 1   
   158  147  158 1   
   159  148  159 1   
   160  148  160 1   
   161  148  161 1   
   162  162  163 1   
   163  162  171 1   
   164  163  164 1   
   165  163  166 1   
   166  163  172 1   
   167  164  165 2   
   168  164  177 1   
   169  166  167 1   
   170  166  173 1   
   171  166  174 1   
   172  167  168 1   
   173  167  175 1   
   174  167  176 1   
   175  168  169 1   
   176  168  170 1   
   177  177  178 1   
   178  177  182 1   
   179  178  179 1   
   180  178  180 1   
   181  178  181 1   
   182  184  185 1   
   183  184  186 1   
   184  187  188 1   
   185  187  189 1   
@<TRIPOS>SUBSTRUCTURE
     1 MOL         1 TEMP              0 ****  ****    0 ROOT
