@<TRIPOS>MOLECULE
MOL
  176   174     1     0     0
SMALL
resp


@<TRIPOS>ATOM
      1 C1          2.2540    2.4530    5.4710 c3        1 MOL     -0.267411
      2 C2          1.4980    2.3480    4.1310 c         1 MOL      0.738047
      3 O1          2.1210    2.2920    3.1110 o         1 MOL     -0.566922
      4 H1          3.3060    2.2150    5.3140 hc        1 MOL      0.073199
      5 H2          2.1660    3.4670    5.8600 hc        1 MOL      0.073199
      6 H3          1.8270    1.7510    6.1870 hc        1 MOL      0.073199
      7 N1          0.1310    2.5010    4.1430 n         1 MOL     -0.692911
      8 C3         -0.6500    2.3020    2.9390 c3        1 MOL      0.076045
      9 C4         -0.6140    3.5880    2.1010 c         1 MOL      0.709472
     10 O2         -1.2870    4.5160    2.5180 o         1 MOL     -0.595590
     11 C5         -2.1090    1.8450    3.2840 c3        1 MOL     -0.119766
     12 C6         -2.8200    1.3010    2.0500 c         1 MOL      0.880394
     13 O3         -2.3500    1.1210    0.9330 o         1 MOL     -0.839156
     14 O4         -4.0680    1.0230    2.1740 o         1 MOL     -0.839156
     15 H4         -0.4110    2.6880    4.9810 hn        1 MOL      0.353080
     16 H5         -0.2720    1.5610    2.2280 h1        1 MOL      0.015057
     17 H6         -2.6530    2.7450    3.5800 hc        1 MOL      0.038950
     18 H7         -2.0330    1.0900    4.0600 hc        1 MOL      0.038950
     19 N2          0.1150    3.6690    0.9660 n         1 MOL     -0.321086
     20 C7          0.4380    4.9290    0.2520 c3        1 MOL     -0.477758
     21 C8         -0.6310    5.4030   -0.6800 c         1 MOL      0.783049
     22 O5         -0.6760    6.4690   -1.1780 o         1 MOL     -0.578784
     23 C9          1.8110    4.7450   -0.4730 c3        1 MOL      0.246295
     24 C10         2.5590    6.0180   -0.8550 c3        1 MOL     -0.120328
     25 C11         3.9370    5.6210   -1.4750 c3        1 MOL      0.140891
     26 C12         4.8680    6.8720   -1.7340 c3        1 MOL      0.079813
     27 N3          5.8300    6.5410   -2.7770 n4        1 MOL     -0.422751
     28 H8          0.3390    2.7670    0.5680 hn        1 MOL      0.264034
     29 H9          0.4890    5.7450    0.9610 h1        1 MOL      0.186951
     30 H10         1.5800    4.1960   -1.3960 hc        1 MOL      0.030483
     31 H11         2.5400    4.1380    0.0580 hc        1 MOL      0.030483
     32 H12         2.8530    6.6380   -0.0080 hc        1 MOL      0.018158
     33 H13         1.9800    6.5300   -1.6350 hc        1 MOL      0.018158
     34 H14         3.7130    5.1050   -2.4060 hc        1 MOL     -0.038366
     35 H15         4.4150    4.8870   -0.8410 hc        1 MOL     -0.038366
     36 H16         5.3410    7.2600   -0.8280 hx        1 MOL      0.070665
     37 H17         4.1240    7.6090   -2.0230 hx        1 MOL      0.070665
     38 H18         6.5260    7.2680   -2.8790 hn        1 MOL      0.346686
     39 H19         6.2620    5.6590   -2.5360 hn        1 MOL      0.346686
     40 H20         5.2680    6.3480   -3.5890 hn        1 MOL      0.346686
     41 N4         -1.7350    4.6300   -0.7810 n         1 MOL     -0.482051
     42 C13        -2.7280    4.7300   -1.8750 c3        1 MOL      0.077397
     43 C14        -4.1050    4.3650   -1.2340 c         1 MOL      0.414283
     44 O6         -5.1730    4.4580   -1.9310 o         1 MOL     -0.555661
     45 C15        -2.3480    3.7620   -3.1570 c3        1 MOL     -0.226201
     46 C16        -2.3160    2.3170   -2.6750 c         1 MOL      0.965439
     47 O7         -3.1170    1.8140   -1.8600 o         1 MOL     -0.864563
     48 O8         -1.4340    1.5310   -3.1480 o         1 MOL     -0.864563
     49 H21        -1.7860    3.6970   -0.3920 hn        1 MOL      0.226743
     50 H22        -2.8420    5.7330   -2.2740 h1        1 MOL      0.101085
     51 H23        -1.3200    4.0430   -3.3910 hc        1 MOL      0.060269
     52 H24        -3.0530    3.8420   -3.9780 hc        1 MOL      0.060269
     53 N5         -4.1830    3.8980    0.0250 n         1 MOL     -0.242919
     54 C17        -5.4140    3.6390    0.7540 c3        1 MOL     -0.152210
     55 C18        -6.2090    2.4710    0.1970 c         1 MOL      0.590774
     56 O9         -7.3190    2.2610    0.7180 o         1 MOL     -0.613983
     57 H25        -3.3030    3.6860    0.4700 hn        1 MOL      0.173915
     58 H26        -6.1140    4.4580    0.8330 h1        1 MOL      0.118527
     59 H27        -5.1820    3.4330    1.8020 h1        1 MOL      0.118527
     60 N6         -5.7240    1.6510   -0.7400 n         1 MOL     -0.378709
     61 C19        -6.3590    0.5160   -1.3190 c3        1 MOL     -0.000242
     62 C20        -6.6400   -0.6110   -0.2530 c         1 MOL      0.416285
     63 O10        -7.3000   -1.5840   -0.5940 o         1 MOL     -0.545576
     64 C21        -5.5650   -0.0120   -2.5470 c3        1 MOL     -0.201782
     65 C22        -4.3360   -0.8860   -2.3260 c         1 MOL      0.780307
     66 N7         -3.6970   -1.3060   -3.4030 n         1 MOL     -0.688484
     67 O11        -3.9450   -1.2080   -1.2430 o         1 MOL     -0.692143
     68 H28        -4.7790    1.8010   -1.0600 hn        1 MOL      0.347527
     69 H29        -7.3770    0.8100   -1.5820 h1        1 MOL      0.096787
     70 H30        -5.2480    0.7930   -3.2120 hc        1 MOL      0.069622
     71 H31        -6.2980   -0.5750   -3.1140 hc        1 MOL      0.069622
     72 H32        -3.9200   -0.9040   -4.3100 hn        1 MOL      0.305460
     73 H33        -3.1920   -2.1780   -3.3790 hn        1 MOL      0.305460
     74 N8         -6.1670   -0.4780    0.9760 n         1 MOL     -0.084612
     75 C23        -6.3990   -1.3580    2.1240 c3        1 MOL     -0.329866
     76 C24        -5.3790   -2.4490    2.3620 c         1 MOL      0.594318
     77 O12        -5.6010   -3.2670    3.2570 o         1 MOL     -0.580889
     78 H34        -5.5960    0.3230    1.1800 hn        1 MOL      0.281452
     79 H35        -7.3300   -1.8590    1.9010 h1        1 MOL      0.136516
     80 H36        -6.4510   -0.8140    3.0700 h1        1 MOL      0.136516
     81 N9         -4.2420   -2.3760    1.6570 n         1 MOL     -0.225745
     82 C25        -3.1200   -3.3520    1.8380 c3        1 MOL     -0.235438
     83 C26        -1.7850   -2.7910    1.5090 c         1 MOL      0.693987
     84 O13        -1.5420   -1.9840    0.6620 o         1 MOL     -0.680071
     85 C27        -3.5340   -4.7140    1.1770 c3        1 MOL     -0.148705
     86 C28        -3.8600   -4.6140   -0.3320 ca        1 MOL      0.051361
     87 C29        -2.7680   -4.5390   -1.2860 ca        1 MOL     -0.162174
     88 C30        -5.2140   -4.6110   -0.7370 ca        1 MOL     -0.162174
     89 C31        -3.0640   -4.4750   -2.6400 ca        1 MOL     -0.269461
     90 C32        -5.4890   -4.5920   -2.1330 ca        1 MOL     -0.269461
     91 C33        -4.4430   -4.4760   -3.0890 ca        1 MOL      0.336228
     92 O14        -4.6150   -4.2950   -4.4250 oh        1 MOL     -0.584400
     93 H37        -4.2650   -1.6830    0.9230 hn        1 MOL      0.284144
     94 H38        -3.1310   -3.5540    2.9020 h1        1 MOL      0.114914
     95 H39        -4.3340   -5.2260    1.7100 hc        1 MOL      0.080489
     96 H40        -2.6220   -5.3050    1.1740 hc        1 MOL      0.080489
     97 H41        -1.7300   -4.4610   -1.0300 ha        1 MOL      0.184782
     98 H42        -5.9910   -4.7080   -0.0030 ha        1 MOL      0.184782
     99 H43        -2.2490   -4.4370   -3.3580 ha        1 MOL      0.142560
    100 H44        -6.5010   -4.4590   -2.4730 ha        1 MOL      0.142560
    101 H45        -5.5100   -4.3000   -4.7510 ho        1 MOL      0.433142
    102 N10        -0.8050   -3.2510    2.2920 n         1 MOL     -0.350501
    103 C34         0.6000   -2.9780    2.2650 c3        1 MOL      0.033202
    104 C35         1.3650   -3.8300    1.2250 c         1 MOL      0.307168
    105 O15         1.2150   -5.0720    1.2130 o         1 MOL     -0.539566
    106 C36         1.2860   -2.8670    3.5940 c3        1 MOL      0.130544
    107 C37         0.3340   -2.1740    4.6580 c3        1 MOL     -0.151915
    108 C38         2.5500   -2.0690    3.5700 c3        1 MOL     -0.378990
    109 C39        -0.2930   -0.8570    4.2350 c3        1 MOL     -0.235677
    110 H46        -1.1490   -3.7740    3.0920 hn        1 MOL      0.268307
    111 H47         0.6710   -1.9510    1.9050 h1        1 MOL      0.102125
    112 H48         1.4660   -3.8430    4.0590 hc        1 MOL      0.011085
    113 H49         0.8810   -2.0800    5.5970 hc        1 MOL      0.061293
    114 H50        -0.5070   -2.8540    4.7700 hc        1 MOL      0.061293
    115 H51         2.3880   -0.9930    3.4700 hc        1 MOL      0.085911
    116 H52         3.1550   -2.2370    4.4590 hc        1 MOL      0.085911
    117 H53         3.1670   -2.2690    2.6990 hc        1 MOL      0.085911
    118 H54        -1.0380   -0.9440    3.4410 hc        1 MOL      0.077679
    119 H55        -0.6760   -0.4750    5.1860 hc        1 MOL      0.077679
    120 H56         0.4690   -0.1530    3.9240 hc        1 MOL      0.077679
    121 N11         2.1230   -3.1740    0.3260 n         1 MOL      0.047032
    122 C40         2.9950   -3.8490   -0.6360 c3        1 MOL     -0.014482
    123 C41         4.4540   -3.3130   -0.5400 c         1 MOL      0.118127
    124 O16         4.7120   -2.2930    0.1240 o         1 MOL     -0.270247
    125 C42         2.3860   -3.5390   -1.9900 c3        1 MOL      0.207867
    126 O17         1.0500   -4.0270   -2.2500 oh        1 MOL     -0.714141
    127 H57         1.9330   -2.1980    0.1700 hn        1 MOL      0.172699
    128 H58         3.0000   -4.9320   -0.4590 h1        1 MOL      0.066955
    129 H59         2.9800   -3.9600   -2.7920 h1        1 MOL      0.011374
    130 H60         2.4210   -2.4460   -1.9930 h1        1 MOL      0.011374
    131 H61         1.1330   -4.9550   -2.4600 ho        1 MOL      0.444236
    132 N12         5.3700   -4.1810   -0.9180 n         1 MOL     -0.214927
    133 C43         6.7710   -4.0890   -0.5740 c3        1 MOL      0.041068
    134 C44         7.4280   -2.7580   -1.0230 c         1 MOL      0.453648
    135 O18         8.3360   -2.2340   -0.4090 o         1 MOL     -0.486155
    136 C45         7.4730   -5.3630   -1.1600 c3        1 MOL     -0.400764
    137 H62         5.0590   -4.9930   -1.4260 hn        1 MOL      0.259775
    138 H63         6.8150   -4.1280    0.5110 h1        1 MOL      0.113369
    139 H64         8.5510   -5.2230   -1.1580 hc        1 MOL      0.127708
    140 H65         7.1670   -6.3060   -0.6960 hc        1 MOL      0.127708
    141 H66         7.0740   -5.3670   -2.1730 hc        1 MOL      0.127708
    142 N13         6.9080   -2.1510   -2.1070 n         1 MOL     -0.323368
    143 C46         7.3570   -0.7890   -2.5170 c3        1 MOL      0.102047
    144 C47         7.0540    0.3420   -1.5640 c         1 MOL      0.399539
    145 O19         7.9060    1.2530   -1.4010 o         1 MOL     -0.512232
    146 C48         6.6710   -0.5270   -3.9380 c3        1 MOL     -0.286430
    147 H67         6.2660   -2.6350   -2.7150 hn        1 MOL      0.211692
    148 H68         8.4380   -0.7840   -2.6410 h1        1 MOL      0.083658
    149 H69         6.7510   -1.4070   -4.5680 hc        1 MOL      0.084683
    150 H70         5.6110   -0.3890   -3.7120 hc        1 MOL      0.084683
    151 H71         7.1130    0.3240   -4.4530 hc        1 MOL      0.084683
    152 N14         5.8760    0.2760   -0.8930 n         1 MOL     -0.325478
    153 C49         5.4010    1.1600    0.2150 c3        1 MOL     -0.102111
    154 C50         6.0930    0.8290    1.5570 c         1 MOL      0.472046
    155 O20         6.2980    1.7740    2.3100 o         1 MOL     -0.539622
    156 C51         3.8910    0.9580    0.4090 c3        1 MOL      0.087283
    157 C52         2.9220    1.0070   -0.7950 c3        1 MOL     -0.032834
    158 C53         1.4840    0.5950   -0.4710 c         1 MOL      0.748808
    159 O21         1.1180   -0.5550   -0.2590 o         1 MOL     -0.748018
    160 O22         0.6250    1.4350   -0.5750 o         1 MOL     -0.748018
    161 H72         5.3380   -0.5840   -0.9610 hn        1 MOL      0.242490
    162 H73         5.6080    2.2220    0.0940 h1        1 MOL      0.111496
    163 H74         3.5530    1.6920    1.1320 hc        1 MOL     -0.000559
    164 H75         3.6740    0.0340    0.9550 hc        1 MOL     -0.000559
    165 H76         3.2700    0.3360   -1.5700 hc        1 MOL     -0.041197
    166 H77         2.8690    1.9990   -1.2550 hc        1 MOL     -0.041197
    167 N15         6.5230   -0.4230    1.8220 n         1 MOL     -0.094679
    168 C54         7.2740   -0.7620    3.0370 c3        1 MOL     -0.293456
    169 H78         8.2760   -1.0920    2.7630 h1        1 MOL      0.118036
    170 H79         7.3440    0.1160    3.6790 h1        1 MOL      0.118036
    171 H80         6.7610   -1.5620    3.5710 h1        1 MOL      0.118036
    172 H81         6.1450   -1.1560    1.2520 hn        1 MOL      0.114299
    173 Ca1        -1.3490   -0.1270   -1.1480 Ca        1 MOL      1.814519
    174 O23        -0.6270   -1.8820   -3.1150 oh        1 MOL     -0.881834
    175 H82        -0.7620   -2.0600   -4.0520 ho        1 MOL      0.435544
    176 H83        -0.1320   -2.6360   -2.7960 ho        1 MOL      0.435544
@<TRIPOS>BOND
     1    1    2 1   
     2    1    4 1   
     3    1    5 1   
     4    1    6 1   
     5    2    3 2   
     6    2    7 1   
     7    7    8 1   
     8    7   15 1   
     9    8    9 1   
    10    8   11 1   
    11    8   16 1   
    12    9   10 2   
    13    9   19 1   
    14   11   12 1   
    15   11   17 1   
    16   11   18 1   
    17   12   13 1   
    18   12   14 1   
    19   19   20 1   
    20   19   28 1   
    21   20   21 1   
    22   20   23 1   
    23   20   29 1   
    24   21   22 2   
    25   21   41 1   
    26   23   24 1   
    27   23   30 1   
    28   23   31 1   
    29   24   25 1   
    30   24   32 1   
    31   24   33 1   
    32   25   26 1   
    33   25   34 1   
    34   25   35 1   
    35   26   27 1   
    36   26   36 1   
    37   26   37 1   
    38   27   38 1   
    39   27   39 1   
    40   27   40 1   
    41   41   42 1   
    42   41   49 1   
    43   42   43 1   
    44   42   45 1   
    45   42   50 1   
    46   43   44 2   
    47   43   53 1   
    48   45   46 1   
    49   45   51 1   
    50   45   52 1   
    51   46   47 1   
    52   46   48 1   
    53   53   54 1   
    54   53   57 1   
    55   54   55 1   
    56   54   58 1   
    57   54   59 1   
    58   55   56 2   
    59   55   60 1   
    60   60   61 1   
    61   60   68 1   
    62   61   62 1   
    63   61   64 1   
    64   61   69 1   
    65   62   63 2   
    66   62   74 1   
    67   64   65 1   
    68   64   70 1   
    69   64   71 1   
    70   65   66 1   
    71   65   67 2   
    72   66   72 1   
    73   66   73 1   
    74   74   75 1   
    75   74   78 1   
    76   75   76 1   
    77   75   79 1   
    78   75   80 1   
    79   76   77 2   
    80   76   81 1   
    81   81   82 1   
    82   81   93 1   
    83   82   83 1   
    84   82   85 1   
    85   82   94 1   
    86   83   84 2   
    87   83  102 1   
    88   85   86 1   
    89   85   95 1   
    90   85   96 1   
    91   86   87 ar  
    92   86   88 ar  
    93   87   89 ar  
    94   87   97 1   
    95   88   90 ar  
    96   88   98 1   
    97   89   91 ar  
    98   89   99 1   
    99   90   91 ar  
   100   90  100 1   
   101   91   92 1   
   102   92  101 1   
   103  102  103 1   
   104  102  110 1   
   105  103  104 1   
   106  103  106 1   
   107  103  111 1   
   108  104  105 2   
   109  104  121 1   
   110  106  107 1   
   111  106  108 1   
   112  106  112 1   
   113  107  109 1   
   114  107  113 1   
   115  107  114 1   
   116  108  115 1   
   117  108  116 1   
   118  108  117 1   
   119  109  118 1   
   120  109  119 1   
   121  109  120 1   
   122  121  122 1   
   123  121  127 1   
   124  122  123 1   
   125  122  125 1   
   126  122  128 1   
   127  123  124 2   
   128  123  132 1   
   129  125  126 1   
   130  125  129 1   
   131  125  130 1   
   132  126  131 1   
   133  132  133 1   
   134  132  137 1   
   135  133  134 1   
   136  133  136 1   
   137  133  138 1   
   138  134  135 2   
   139  134  142 1   
   140  136  139 1   
   141  136  140 1   
   142  136  141 1   
   143  142  143 1   
   144  142  147 1   
   145  143  144 1   
   146  143  146 1   
   147  143  148 1   
   148  144  145 2   
   149  144  152 1   
   150  146  149 1   
   151  146  150 1   
   152  146  151 1   
   153  152  153 1   
   154  152  161 1   
   155  153  154 1   
   156  153  156 1   
   157  153  162 1   
   158  154  155 2   
   159  154  167 1   
   160  156  157 1   
   161  156  163 1   
   162  156  164 1   
   163  157  158 1   
   164  157  165 1   
   165  157  166 1   
   166  158  159 1   
   167  158  160 1   
   168  167  168 1   
   169  167  172 1   
   170  168  169 1   
   171  168  170 1   
   172  168  171 1   
   173  174  175 1   
   174  174  176 1   
@<TRIPOS>SUBSTRUCTURE
     1 MOL         1 TEMP              0 ****  ****    0 ROOT
