@<TRIPOS>MOLECULE
MOL
  179   176     1     0     0
SMALL
resp


@<TRIPOS>ATOM
      1 C1          2.6380    3.3720    4.4650 c3        1 MOL     -0.485268
      2 C2          1.7980    3.0430    3.2050 c         1 MOL      0.554159
      3 O1          2.4350    2.7760    2.1500 o         1 MOL     -0.526499
      4 H1          3.2640    4.2420    4.2660 hc        1 MOL      0.127252
      5 H2          1.9710    3.5880    5.3000 hc        1 MOL      0.127252
      6 H3          3.2690    2.5190    4.7140 hc        1 MOL      0.127252
      7 N1          0.5150    3.0120    3.2420 n         1 MOL     -0.470466
      8 C3         -0.3570    2.8020    2.0750 c3        1 MOL      0.360685
      9 C4         -0.8440    4.1840    1.5060 c         1 MOL      0.279510
     10 O2         -1.8190    4.8020    1.9040 o         1 MOL     -0.461455
     11 C5         -1.5280    1.9080    2.4850 c3        1 MOL     -0.227636
     12 C6         -2.5610    1.7120    1.3690 c         1 MOL      0.627458
     13 O3         -3.7840    1.4680    1.6410 o         1 MOL     -0.648479
     14 O4         -2.2750    1.9550    0.1570 o         1 MOL     -0.648479
     15 H4          0.0570    3.2620    4.1120 hn        1 MOL      0.301570
     16 H5          0.2280    2.2690    1.3170 h1        1 MOL     -0.086260
     17 H6         -1.9650    2.4440    3.3240 hc        1 MOL      0.052041
     18 H7         -1.0680    0.9920    2.8660 hc        1 MOL      0.052041
     19 N2          0.0080    4.7230    0.6430 n         1 MOL     -0.340045
     20 C7         -0.2590    6.0510    0.0380 c3        1 MOL      0.051220
     21 C8         -1.2460    6.0650   -1.1740 c         1 MOL      0.410846
     22 O5         -1.6180    7.1400   -1.6480 o         1 MOL     -0.552402
     23 C9          1.0230    6.8560   -0.3090 c3        1 MOL     -0.072096
     24 C10         1.9300    6.9220    0.9790 c3        1 MOL      0.085114
     25 C11         3.2200    7.6650    0.5360 c3        1 MOL     -0.136595
     26 C12         4.1300    7.8080    1.7550 c3        1 MOL      0.044800
     27 N3          5.1520    6.7680    1.9310 n4        1 MOL     -0.533365
     28 H8          0.9760    4.4410    0.6340 hn        1 MOL      0.298824
     29 H9         -0.7940    6.5380    0.8540 h1        1 MOL      0.066163
     30 H10         0.6560    7.8480   -0.5700 hc        1 MOL      0.044570
     31 H11         1.4300    6.3700   -1.1930 hc        1 MOL      0.044570
     32 H12         2.1840    5.9110    1.2780 hc        1 MOL     -0.002501
     33 H13         1.4660    7.4720    1.7970 hc        1 MOL     -0.002501
     34 H14         2.9320    8.6620    0.1810 hc        1 MOL      0.070122
     35 H15         3.7070    7.1650   -0.2960 hc        1 MOL      0.070122
     36 H16         3.4980    8.0080    2.6190 hx        1 MOL      0.092722
     37 H17         4.6850    8.7430    1.6230 hx        1 MOL      0.092722
     38 H18         5.8750    6.9250    1.2500 hn        1 MOL      0.382488
     39 H19         5.3700    6.6430    2.9070 hn        1 MOL      0.382488
     40 H20         4.8130    5.8510    1.6780 hn        1 MOL      0.382488
     41 N4         -1.6460    4.9240   -1.5980 n         1 MOL     -0.115000
     42 C13        -2.8010    4.8760   -2.6050 c3        1 MOL     -0.006615
     43 C14        -4.2390    4.6740   -2.0550 c         1 MOL      0.487274
     44 O6         -5.2080    5.2820   -2.4800 o         1 MOL     -0.541871
     45 C15        -2.5020    3.7070   -3.5750 c3        1 MOL     -0.343645
     46 C16        -2.0110    2.3870   -2.9730 c         1 MOL      0.840888
     47 O7         -0.7730    2.1680   -2.7920 o         1 MOL     -0.733250
     48 O8         -2.9060    1.4890   -2.8640 o         1 MOL     -0.733250
     49 H21        -1.1170    4.1140   -1.3360 hn        1 MOL      0.093575
     50 H22        -2.7620    5.7910   -3.1930 h1        1 MOL      0.099167
     51 H23        -1.7080    3.9800   -4.2710 hc        1 MOL      0.090069
     52 H24        -3.4070    3.3790   -4.0840 hc        1 MOL      0.090069
     53 N5         -4.2780    3.8690   -1.0110 n         1 MOL     -0.248152
     54 C17        -5.5290    3.7930   -0.2330 c3        1 MOL     -0.292679
     55 C18        -6.3070    2.5350   -0.5690 c         1 MOL      0.542931
     56 O9         -7.4590    2.3930   -0.1790 o         1 MOL     -0.592403
     57 H25        -3.4570    3.3660   -0.7150 hn        1 MOL      0.294744
     58 H26        -6.0570    4.7420   -0.3590 h1        1 MOL      0.161966
     59 H27        -5.2550    3.7330    0.8180 h1        1 MOL      0.161966
     60 N6         -5.6630    1.4700   -0.9930 n         1 MOL     -0.048182
     61 C19        -6.3910    0.2740   -1.3410 c3        1 MOL     -0.073743
     62 C20        -6.5510   -0.6720   -0.1320 c         1 MOL      0.300515
     63 O10        -7.2740   -1.7010   -0.2250 o         1 MOL     -0.463534
     64 C21        -5.7090   -0.3670   -2.5280 c3        1 MOL     -0.006321
     65 C22        -4.5220   -1.2250   -2.1900 c         1 MOL      0.611257
     66 N7         -4.3040   -2.2260   -2.9320 n         1 MOL     -0.600568
     67 O11        -3.7390   -0.9060   -1.2820 o         1 MOL     -0.659476
     68 H28        -4.6580    1.4830   -0.9690 hn        1 MOL     -0.063603
     69 H29        -7.3690    0.5430   -1.7370 h1        1 MOL      0.136760
     70 H30        -5.4050    0.3960   -3.2390 hc        1 MOL      0.022933
     71 H31        -6.4980   -1.0020   -2.9420 hc        1 MOL      0.022933
     72 H32        -4.8530   -2.3090   -3.7810 hn        1 MOL      0.312435
     73 H33        -3.4730   -2.7660   -2.7600 hn        1 MOL      0.312435
     74 N8         -5.9250   -0.3430    1.0340 n         1 MOL     -0.089718
     75 C23        -6.0460   -1.1270    2.2590 c3        1 MOL     -0.331368
     76 C24        -4.8790   -2.0840    2.5200 c         1 MOL      0.686220
     77 O12        -4.9410   -2.7060    3.5500 o         1 MOL     -0.577898
     78 H34        -5.3680    0.4990    1.0100 hn        1 MOL      0.252222
     79 H35        -6.9730   -1.7040    2.1970 h1        1 MOL      0.148164
     80 H36        -6.1180   -0.5090    3.1610 h1        1 MOL      0.148164
     81 N9         -3.8790   -2.1940    1.5970 n         1 MOL     -0.537290
     82 C25        -2.7920   -3.1900    1.5660 c3        1 MOL      0.426963
     83 C26        -1.4450   -2.4520    1.3830 c         1 MOL      0.221921
     84 O13        -1.2510   -1.6430    0.5060 o         1 MOL     -0.422483
     85 C27        -3.0020   -4.1630    0.3680 c3        1 MOL     -0.148388
     86 C28        -4.1200   -5.1000    0.4910 ca        1 MOL     -0.085240
     87 C29        -5.3870   -4.5940    0.1630 ca        1 MOL     -0.007285
     88 C30        -3.8250   -6.4160    0.7970 ca        1 MOL     -0.007285
     89 C31        -6.4500   -5.6020    0.2020 ca        1 MOL     -0.388889
     90 C32        -4.8360   -7.3730    0.6560 ca        1 MOL     -0.388889
     91 C33        -6.1990   -6.9380    0.4740 ca        1 MOL      0.469320
     92 O14        -7.1780   -7.8630    0.5440 oh        1 MOL     -0.516563
     93 H37        -3.9890   -1.5760    0.8040 hn        1 MOL      0.253928
     94 H38        -2.8370   -3.6920    2.5360 h1        1 MOL     -0.000645
     95 H39        -2.0760   -4.6800    0.1200 hc        1 MOL      0.053436
     96 H40        -3.1670   -3.4860   -0.4770 hc        1 MOL      0.053436
     97 H41        -5.5640   -3.6210   -0.2710 ha        1 MOL      0.086678
     98 H42        -2.8150   -6.7410    1.0030 ha        1 MOL      0.086678
     99 H43        -7.4700   -5.3070    0.0150 ha        1 MOL      0.164260
    100 H44        -4.5560   -8.4190    0.6830 ha        1 MOL      0.164260
    101 H45        -6.9390   -8.7390    0.8490 ho        1 MOL      0.369019
    102 N10        -0.3880   -2.8920    2.1540 n         1 MOL     -0.438210
    103 C34         1.0350   -2.5920    1.9860 c3        1 MOL      0.156818
    104 C35         1.8080   -3.6940    1.2120 c         1 MOL      0.560825
    105 O15         1.8520   -4.8100    1.6270 o         1 MOL     -0.584913
    106 C36         1.6190   -2.2360    3.3920 c3        1 MOL      0.074285
    107 C37         0.7290   -1.1470    3.9760 c3        1 MOL      0.246888
    108 C38         3.1240   -1.9480    3.2010 c3        1 MOL     -0.227998
    109 C39         0.9320   -0.8200    5.4060 c3        1 MOL     -0.285755
    110 H46        -0.6290   -3.5730    2.8590 hn        1 MOL      0.251940
    111 H47         1.1220   -1.6420    1.4600 h1        1 MOL     -0.045708
    112 H48         1.6370   -3.1560    3.9710 hc        1 MOL     -0.010126
    113 H49        -0.2890   -1.5210    4.0420 hc        1 MOL      0.002537
    114 H50         0.7220   -0.2270    3.3890 hc        1 MOL      0.002537
    115 H51         3.5930   -2.7980    2.7120 hc        1 MOL      0.047818
    116 H52         3.1810   -1.0470    2.5890 hc        1 MOL      0.047818
    117 H53         3.6410   -1.8010    4.1500 hc        1 MOL      0.047818
    118 H54         0.6490   -1.6750    6.0130 hc        1 MOL      0.051840
    119 H55         1.9940   -0.6220    5.5390 hc        1 MOL      0.051840
    120 H56         0.3040    0.0470    5.6220 hc        1 MOL      0.051840
    121 N11         2.4670   -3.2930    0.1240 n         1 MOL     -0.134225
    122 C40         3.3570   -4.0590   -0.6260 c3        1 MOL      0.083705
    123 C41         4.7840   -3.7180   -0.2590 c         1 MOL      0.288904
    124 O16         5.1260   -2.6240    0.1910 o         1 MOL     -0.254692
    125 C42         3.2240   -3.8270   -2.1180 c3        1 MOL      0.267739
    126 O17         1.8900   -3.7450   -2.5050 oh        1 MOL     -0.618404
    127 H57         2.2330   -2.3360   -0.1010 hn        1 MOL      0.065361
    128 H58         3.0530   -5.0980   -0.4860 h1        1 MOL      0.062297
    129 H59         3.7110   -4.6690   -2.6050 h1        1 MOL     -0.035096
    130 H60         3.7630   -2.9200   -2.3820 h1        1 MOL     -0.035096
    131 H61         1.8990   -3.5460   -3.4430 ho        1 MOL      0.410865
    132 N12         5.7060   -4.5720   -0.6180 n         1 MOL     -0.499382
    133 C43         7.1240   -4.4770   -0.4150 c3        1 MOL      0.348586
    134 C44         7.5570   -3.1610   -0.9810 c         1 MOL      0.241511
    135 O18         8.4410   -2.4590   -0.3890 o         1 MOL     -0.474003
    136 C45         7.9030   -5.5530   -1.0780 c3        1 MOL     -0.358068
    137 H62         5.3570   -5.3920   -1.0990 hn        1 MOL      0.279984
    138 H63         7.3850   -4.5040    0.6430 h1        1 MOL      0.052277
    139 H64         7.7070   -6.5830   -0.7490 hc        1 MOL      0.105964
    140 H65         7.8310   -5.5060   -2.1610 hc        1 MOL      0.105964
    141 H66         8.9260   -5.3280   -0.7910 hc        1 MOL      0.105964
    142 N13         7.0810   -2.7900   -2.1980 n         1 MOL     -0.129471
    143 C46         7.5820   -1.6180   -2.9260 c3        1 MOL      0.060148
    144 C47         7.2650   -0.2520   -2.2110 c         1 MOL      0.307861
    145 O19         8.0140    0.7530   -2.2550 o         1 MOL     -0.499867
    146 C48         6.9340   -1.5910   -4.3260 c3        1 MOL     -0.339499
    147 H67         6.7450   -3.5230   -2.8140 hn        1 MOL      0.163742
    148 H68         8.6550   -1.7500   -3.0650 h1        1 MOL      0.094722
    149 H69         7.4820   -2.3080   -4.9320 hc        1 MOL      0.105181
    150 H70         5.8620   -1.7280   -4.3310 hc        1 MOL      0.105181
    151 H71         7.1780   -0.6770   -4.8650 hc        1 MOL      0.105181
    152 N14         6.1010   -0.2680   -1.5120 n         1 MOL     -0.110219
    153 C49         5.5790    0.8550   -0.7090 c3        1 MOL     -0.062478
    154 C50         5.8790    0.8940    0.7960 c         1 MOL      0.523021
    155 O20         5.9820    1.9780    1.3440 o         1 MOL     -0.605253
    156 C51         4.0220    1.0280   -1.1060 c3        1 MOL      0.024282
    157 C52         3.1170    0.0440   -0.4220 c3        1 MOL      0.031367
    158 C53         1.6740    0.1590   -0.8740 c         1 MOL      0.700426
    159 O21         1.3390   -0.5730   -1.7910 o         1 MOL     -0.698455
    160 O22         0.8250    0.8950   -0.2890 o         1 MOL     -0.698455
    161 H72         5.6630   -1.1760   -1.5930 hn        1 MOL      0.135004
    162 H73         6.0140    1.7660   -1.1130 h1        1 MOL      0.094770
    163 H74         3.9070    0.9980   -2.1920 hc        1 MOL     -0.014473
    164 H75         3.6730    1.9910   -0.7410 hc        1 MOL     -0.014473
    165 H76         3.1140    0.1990    0.6630 hc        1 MOL     -0.014137
    166 H77         3.5140   -0.9450   -0.6500 hc        1 MOL     -0.014137
    167 N15         6.1250   -0.2820    1.3980 n         1 MOL     -0.098872
    168 C54         6.9480   -0.3760    2.6610 c3        1 MOL     -0.213739
    169 H78         7.5580    0.5210    2.7640 h1        1 MOL      0.094465
    170 H79         6.2860   -0.4660    3.5220 h1        1 MOL      0.094465
    171 H80         7.5970   -1.2510    2.6080 h1        1 MOL      0.094465
    172 H81         5.8590   -1.1480    0.9490 hn        1 MOL      0.051373
    173 Ca1        -1.3160    0.0390   -1.4080 Ca        1 MOL      1.711113
    174 O23        -1.0660   -0.5190   -4.0160 oh        1 MOL     -0.821908
    175 H82        -1.7660   -0.2930   -4.6450 ho        1 MOL      0.392885
    176 H83        -0.6630   -1.3020   -4.3900 ho        1 MOL      0.392885
    177 O24        -1.1550   -2.9540   -1.8710 oh        1 MOL     -0.821908
    178 H84        -0.2020   -2.9090   -1.9960 ho        1 MOL      0.392885
    179 H85        -1.3860   -3.8460   -2.1120 ho        1 MOL      0.392885
@<TRIPOS>BOND
     1    1    2 1   
     2    1    4 1   
     3    1    5 1   
     4    1    6 1   
     5    2    3 2   
     6    2    7 1   
     7    7    8 1   
     8    7   15 1   
     9    8    9 1   
    10    8   11 1   
    11    8   16 1   
    12    9   10 2   
    13    9   19 1   
    14   11   12 1   
    15   11   17 1   
    16   11   18 1   
    17   12   13 1   
    18   12   14 1   
    19   19   20 1   
    20   19   28 1   
    21   20   21 1   
    22   20   23 1   
    23   20   29 1   
    24   21   22 2   
    25   21   41 1   
    26   23   24 1   
    27   23   30 1   
    28   23   31 1   
    29   24   25 1   
    30   24   32 1   
    31   24   33 1   
    32   25   26 1   
    33   25   34 1   
    34   25   35 1   
    35   26   27 1   
    36   26   36 1   
    37   26   37 1   
    38   27   38 1   
    39   27   39 1   
    40   27   40 1   
    41   41   42 1   
    42   41   49 1   
    43   42   43 1   
    44   42   45 1   
    45   42   50 1   
    46   43   44 2   
    47   43   53 1   
    48   45   46 1   
    49   45   51 1   
    50   45   52 1   
    51   46   47 1   
    52   46   48 1   
    53   53   54 1   
    54   53   57 1   
    55   54   55 1   
    56   54   58 1   
    57   54   59 1   
    58   55   56 2   
    59   55   60 1   
    60   60   61 1   
    61   60   68 1   
    62   61   62 1   
    63   61   64 1   
    64   61   69 1   
    65   62   63 2   
    66   62   74 1   
    67   64   65 1   
    68   64   70 1   
    69   64   71 1   
    70   65   66 1   
    71   65   67 2   
    72   66   72 1   
    73   66   73 1   
    74   74   75 1   
    75   74   78 1   
    76   75   76 1   
    77   75   79 1   
    78   75   80 1   
    79   76   77 2   
    80   76   81 1   
    81   81   82 1   
    82   81   93 1   
    83   82   83 1   
    84   82   85 1   
    85   82   94 1   
    86   83   84 2   
    87   83  102 1   
    88   85   86 1   
    89   85   95 1   
    90   85   96 1   
    91   86   87 ar  
    92   86   88 ar  
    93   87   89 ar  
    94   87   97 1   
    95   88   90 ar  
    96   88   98 1   
    97   89   91 ar  
    98   89   99 1   
    99   90   91 ar  
   100   90  100 1   
   101   91   92 1   
   102   92  101 1   
   103  102  103 1   
   104  102  110 1   
   105  103  104 1   
   106  103  106 1   
   107  103  111 1   
   108  104  105 2   
   109  104  121 1   
   110  106  107 1   
   111  106  108 1   
   112  106  112 1   
   113  107  109 1   
   114  107  113 1   
   115  107  114 1   
   116  108  115 1   
   117  108  116 1   
   118  108  117 1   
   119  109  118 1   
   120  109  119 1   
   121  109  120 1   
   122  121  122 1   
   123  121  127 1   
   124  122  123 1   
   125  122  125 1   
   126  122  128 1   
   127  123  124 2   
   128  123  132 1   
   129  125  126 1   
   130  125  129 1   
   131  125  130 1   
   132  126  131 1   
   133  132  133 1   
   134  132  137 1   
   135  133  134 1   
   136  133  136 1   
   137  133  138 1   
   138  134  135 2   
   139  134  142 1   
   140  136  139 1   
   141  136  140 1   
   142  136  141 1   
   143  142  143 1   
   144  142  147 1   
   145  143  144 1   
   146  143  146 1   
   147  143  148 1   
   148  144  145 2   
   149  144  152 1   
   150  146  149 1   
   151  146  150 1   
   152  146  151 1   
   153  152  153 1   
   154  152  161 1   
   155  153  154 1   
   156  153  156 1   
   157  153  162 1   
   158  154  155 2   
   159  154  167 1   
   160  156  157 1   
   161  156  163 1   
   162  156  164 1   
   163  157  158 1   
   164  157  165 1   
   165  157  166 1   
   166  158  159 1   
   167  158  160 1   
   168  167  168 1   
   169  167  172 1   
   170  168  169 1   
   171  168  170 1   
   172  168  171 1   
   173  174  175 1   
   174  174  176 1   
   175  177  178 1   
   176  177  179 1   
@<TRIPOS>SUBSTRUCTURE
     1 MOL         1 TEMP              0 ****  ****    0 ROOT
