@<TRIPOS>MOLECULE
MOL
  179   176     1     0     0
SMALL
resp


@<TRIPOS>ATOM
      1 C1          2.3020    2.6910    5.1620 c3        1 MOL     -0.453893
      2 C2          1.5810    2.3890    3.8340 c         1 MOL      0.746699
      3 O1          2.2570    2.1030    2.8070 o         1 MOL     -0.614986
      4 H1          1.6580    2.4110    5.9960 hc        1 MOL      0.120816
      5 H2          3.2290    2.1190    5.2110 hc        1 MOL      0.120816
      6 H3          2.5280    3.7560    5.2190 hc        1 MOL      0.120816
      7 N1          0.2320    2.4360    3.7430 n         1 MOL     -0.629172
      8 C3         -0.3690    2.4760    2.4530 c3        1 MOL      0.370970
      9 C4         -0.3560    3.8820    1.8690 c         1 MOL      0.293160
     10 O2         -0.6330    4.8850    2.5610 o         1 MOL     -0.550429
     11 C5         -1.8830    2.1750    2.6570 c3        1 MOL     -0.302874
     12 C6         -2.7110    1.6800    1.4220 c         1 MOL      0.828298
     13 O3         -3.8020    1.0540    1.6460 o         1 MOL     -0.770778
     14 O4         -2.1140    1.7790    0.3090 o         1 MOL     -0.770778
     15 H4         -0.2660    2.6710    4.5870 hn        1 MOL      0.317478
     16 H5          0.0000    1.6660    1.8260 h1        1 MOL      0.015541
     17 H6         -2.4400    3.0570    2.9790 hc        1 MOL      0.077624
     18 H7         -2.0300    1.3650    3.3760 hc        1 MOL      0.077624
     19 N2         -0.2140    4.0240    0.5520 n         1 MOL     -0.130814
     20 C7          0.1440    5.1970   -0.2210 c3        1 MOL     -0.078763
     21 C8         -0.7840    5.5930   -1.2840 c         1 MOL      0.556371
     22 O5         -0.7090    6.6760   -1.8540 o         1 MOL     -0.534976
     23 C9          1.5350    5.0280   -0.8130 c3        1 MOL     -0.068341
     24 C10         2.6880    4.5790    0.2420 c3        1 MOL      0.010147
     25 C11         3.0260    5.7580    1.1700 c3        1 MOL     -0.224912
     26 C12         4.0070    5.2920    2.2860 c3        1 MOL      0.203485
     27 N3          4.3910    6.5050    3.1010 n4        1 MOL     -0.330845
     28 H8         -0.0410    3.1960    0.0090 hn        1 MOL      0.247117
     29 H9          0.2150    6.1010    0.3890 h1        1 MOL      0.074763
     30 H10         1.9170    5.9230   -1.3050 hc        1 MOL      0.050407
     31 H11         1.4580    4.3120   -1.6290 hc        1 MOL      0.050407
     32 H12         3.6440    4.4190   -0.2610 hc        1 MOL      0.062395
     33 H13         2.3520    3.7270    0.8350 hc        1 MOL      0.062395
     34 H14         2.0800    6.1040    1.6110 hc        1 MOL      0.068416
     35 H15         3.5520    6.5080    0.5680 hc        1 MOL      0.068416
     36 H16         4.9550    4.9670    1.8530 hx        1 MOL      0.055806
     37 H17         3.6200    4.4770    2.8930 hx        1 MOL      0.055806
     38 H18         4.6590    7.3090    2.5570 hn        1 MOL      0.300220
     39 H19         3.6350    6.9200    3.6310 hn        1 MOL      0.300220
     40 H20         5.1280    6.2760    3.7440 hn        1 MOL      0.300220
     41 N4         -1.8140    4.6740   -1.5480 n         1 MOL     -0.422345
     42 C13        -2.7530    4.8080   -2.6570 c3        1 MOL      0.049069
     43 C14        -4.1980    4.5470   -2.1550 c         1 MOL      0.367746
     44 O6         -5.1820    4.5090   -2.8900 o         1 MOL     -0.497593
     45 C15        -2.3150    3.8180   -3.8040 c3        1 MOL     -0.120989
     46 C16        -2.0230    2.4240   -3.1710 c         1 MOL      0.666305
     47 O7         -2.9090    1.6100   -2.7870 o         1 MOL     -0.728413
     48 O8         -0.8420    2.0850   -3.0310 o         1 MOL     -0.728413
     49 H21        -1.7220    3.7340   -1.1990 hn        1 MOL      0.282551
     50 H22        -2.6130    5.8030   -3.0820 h1        1 MOL      0.108039
     51 H23        -1.3510    4.1420   -4.1870 hc        1 MOL      0.048777
     52 H24        -3.0270    3.7560   -4.6150 hc        1 MOL      0.048777
     53 N5         -4.3430    4.3110   -0.8140 n         1 MOL     -0.220134
     54 C17        -5.6540    4.2120   -0.0810 c3        1 MOL     -0.116709
     55 C18        -6.3790    2.8880   -0.1720 c         1 MOL      0.502357
     56 O9         -7.4570    2.7070    0.3870 o         1 MOL     -0.585453
     57 H25        -3.4890    4.4110   -0.2880 hn        1 MOL      0.157375
     58 H26        -6.3660    4.9900   -0.3660 h1        1 MOL      0.096055
     59 H27        -5.5440    4.4320    0.9880 h1        1 MOL      0.096055
     60 N6         -5.7710    1.9250   -0.7940 n         1 MOL     -0.113572
     61 C19        -6.4650    0.6930   -1.2030 c3        1 MOL     -0.309182
     62 C20        -6.6590   -0.4200   -0.1570 c         1 MOL      0.332432
     63 O10        -7.1460   -1.4690   -0.4550 o         1 MOL     -0.433847
     64 C21        -5.7450    0.1130   -2.4660 c3        1 MOL     -0.130646
     65 C22        -4.6160   -0.8900   -2.2830 c         1 MOL      0.449947
     66 N7         -4.4500   -1.7400   -3.1810 n         1 MOL     -0.791147
     67 O11        -3.7720   -0.8340   -1.3610 o         1 MOL     -0.293128
     68 H28        -4.7730    1.9380   -0.9370 hn        1 MOL      0.163599
     69 H29        -7.4420    0.9630   -1.5920 h1        1 MOL      0.197810
     70 H30        -5.3500    0.9250   -3.0770 hc        1 MOL      0.091562
     71 H31        -6.5200   -0.3380   -3.0910 hc        1 MOL      0.091562
     72 H32        -5.2660   -1.9840   -3.7210 hn        1 MOL      0.382920
     73 H33        -3.6880   -2.3910   -3.2090 hn        1 MOL      0.382920
     74 N8         -6.1690   -0.1720    1.0480 n         1 MOL      0.040104
     75 C23        -6.2240   -0.9870    2.2340 c3        1 MOL     -0.471165
     76 C24        -5.1880   -2.1490    2.1670 c         1 MOL      0.644655
     77 O12        -5.3650   -3.3020    2.6310 o         1 MOL     -0.532161
     78 H34        -5.6260    0.6520    1.2580 hn        1 MOL      0.219584
     79 H35        -7.2070   -1.4240    2.4100 h1        1 MOL      0.161041
     80 H36        -5.8660   -0.3430    3.0440 h1        1 MOL      0.161041
     81 N9         -4.0220   -1.9290    1.5580 n         1 MOL     -0.579219
     82 C25        -2.9390   -2.8890    1.4980 c3        1 MOL      0.277730
     83 C26        -1.5490   -2.1900    1.4890 c         1 MOL      0.432479
     84 O13        -1.3990   -1.1460    0.9040 o         1 MOL     -0.581334
     85 C27        -3.1150   -3.8080    0.2560 c3        1 MOL     -0.027933
     86 C28        -4.3640   -4.7330    0.1720 ca        1 MOL      0.177883
     87 C29        -5.2580   -4.6050   -0.9030 ca        1 MOL     -0.317382
     88 C30        -4.6040   -5.7920    1.0850 ca        1 MOL     -0.317382
     89 C31        -6.4300   -5.3420   -0.9040 ca        1 MOL     -0.165182
     90 C32        -5.7710   -6.5620    1.0570 ca        1 MOL     -0.165182
     91 C33        -6.7420   -6.3250    0.0820 ca        1 MOL      0.331406
     92 O14        -7.8870   -7.0870    0.0820 oh        1 MOL     -0.530817
     93 H37        -3.8870   -1.0520    1.0910 hn        1 MOL      0.378798
     94 H38        -2.9070   -3.5120    2.4020 h1        1 MOL     -0.011823
     95 H39        -2.2340   -4.4590    0.2540 hc        1 MOL     -0.020678
     96 H40        -3.0710   -3.1000   -0.5700 hc        1 MOL     -0.020678
     97 H41        -5.0910   -3.8480   -1.6500 ha        1 MOL      0.166544
     98 H42        -3.8480   -5.9540    1.8490 ha        1 MOL      0.166544
     99 H43        -7.1120   -5.1550   -1.7290 ha        1 MOL      0.117584
    100 H44        -5.9980   -7.3390    1.7660 ha        1 MOL      0.117584
    101 H45        -7.8260   -7.8750    0.6300 ho        1 MOL      0.378999
    102 N10        -0.5410   -2.8450    2.0680 n         1 MOL     -0.477305
    103 C34         0.9040   -2.4980    1.9830 c3        1 MOL      0.028513
    104 C35         1.6150   -3.4880    1.0240 c         1 MOL      0.360472
    105 O15         1.3980   -4.6950    1.1830 o         1 MOL     -0.540680
    106 C36         1.6820   -2.5420    3.3530 c3        1 MOL      0.168725
    107 C37         0.8580   -1.8930    4.5030 c3        1 MOL      0.181883
    108 C38         3.0730   -1.8480    3.1900 c3        1 MOL     -0.398251
    109 C39         1.5550   -1.9840    5.8810 c3        1 MOL     -0.191345
    110 H46        -0.8090   -3.6880    2.5620 hn        1 MOL      0.300114
    111 H47         1.0490   -1.4970    1.5810 h1        1 MOL      0.111424
    112 H48         1.8560   -3.5770    3.6400 hc        1 MOL     -0.000684
    113 H49        -0.0990   -2.4050    4.6140 hc        1 MOL     -0.037006
    114 H50         0.6540   -0.8420    4.3170 hc        1 MOL     -0.037006
    115 H51         3.8190   -2.4690    2.7150 hc        1 MOL      0.092074
    116 H52         2.9050   -0.9090    2.6420 hc        1 MOL      0.092074
    117 H53         3.4180   -1.6450    4.2010 hc        1 MOL      0.092074
    118 H54         1.7490   -3.0460    6.0200 hc        1 MOL      0.038298
    119 H55         2.4750   -1.4130    6.0070 hc        1 MOL      0.038298
    120 H56         0.8130   -1.7080    6.6320 hc        1 MOL      0.038298
    121 N11         2.5120   -2.9360    0.2100 n         1 MOL     -0.019801
    122 C40         3.3450   -3.7980   -0.6520 c3        1 MOL     -0.116645
    123 C41         4.8310   -3.5180   -0.3850 c         1 MOL      0.386958
    124 O16         5.1550   -2.5940    0.3480 o         1 MOL     -0.393333
    125 C42         2.9310   -3.4040   -2.1050 c3        1 MOL      0.095972
    126 O17         3.2100   -2.0270   -2.2520 oh        1 MOL     -0.507119
    127 H57         2.5150   -1.9280    0.0990 hn        1 MOL      0.223073
    128 H58         3.1900   -4.8740   -0.5300 h1        1 MOL      0.082694
    129 H59         1.8830   -3.6780   -2.1300 h1        1 MOL      0.031323
    130 H60         3.4450   -4.0030   -2.8600 h1        1 MOL      0.031323
    131 H61         2.6300   -1.5820   -1.6290 ho        1 MOL      0.302344
    132 N12         5.6840   -4.4410   -0.9300 n         1 MOL     -0.352739
    133 C43         7.1220   -4.3410   -0.8490 c3        1 MOL      0.063103
    134 C44         7.5830   -2.9990   -1.5010 c         1 MOL      0.561123
    135 O18         8.3130   -2.2750   -0.8460 o         1 MOL     -0.535471
    136 C45         7.6120   -5.5900   -1.6050 c3        1 MOL     -0.339291
    137 H62         5.2680   -5.2910   -1.3020 hn        1 MOL      0.272688
    138 H63         7.4390   -4.3440    0.1910 h1        1 MOL      0.106329
    139 H64         8.6880   -5.5710   -1.7700 hc        1 MOL      0.102464
    140 H65         7.3020   -6.4260   -0.9830 hc        1 MOL      0.102464
    141 H66         7.2080   -5.7160   -2.6060 hc        1 MOL      0.102464
    142 N13         7.0510   -2.5420   -2.6670 n         1 MOL     -0.515037
    143 C46         7.4620   -1.2390   -3.2520 c3        1 MOL      0.259176
    144 C47         7.0890    0.0160   -2.3160 c         1 MOL      0.291824
    145 O19         7.7710    0.9940   -2.2990 o         1 MOL     -0.503260
    146 C48         6.7640   -0.9500   -4.5550 c3        1 MOL     -0.237184
    147 H67         6.3150   -3.0580   -3.1250 hn        1 MOL      0.280035
    148 H68         8.5390   -1.2530   -3.4310 h1        1 MOL      0.049634
    149 H69         7.3630   -0.1360   -4.9690 hc        1 MOL      0.067381
    150 H70         6.9350   -1.7820   -5.2390 hc        1 MOL      0.067381
    151 H71         5.7420   -0.5680   -4.4380 hc        1 MOL      0.067381
    152 N14         5.9940   -0.0530   -1.5660 n         1 MOL      0.088691
    153 C49         5.6380    1.0380   -0.5830 c3        1 MOL     -0.481104
    154 C50         6.6100    0.9990    0.5480 c         1 MOL      0.673276
    155 O20         6.9320    1.9880    1.1310 o         1 MOL     -0.600974
    156 C51         4.1960    0.8620   -0.0390 c3        1 MOL      0.162384
    157 C52         3.1320    1.1920   -1.0870 c3        1 MOL      0.090368
    158 C53         1.7010    0.7390   -0.6630 c         1 MOL      0.709347
    159 O21         1.4760   -0.5090   -0.7840 o         1 MOL     -0.757864
    160 O22         0.8050    1.6220   -0.6140 o         1 MOL     -0.757864
    161 H72         5.3970   -0.8630   -1.6520 hn        1 MOL      0.088784
    162 H73         5.7590    2.0070   -1.0780 h1        1 MOL      0.168500
    163 H74         4.1030    1.5510    0.8110 hc        1 MOL     -0.051226
    164 H75         4.1830   -0.1250    0.4000 hc        1 MOL     -0.051226
    165 H76         3.4530    0.6100   -1.9550 hc        1 MOL     -0.037397
    166 H77         3.2000    2.2650   -1.2620 hc        1 MOL     -0.037397
    167 N15         6.9780   -0.2060    0.9840 n         1 MOL     -0.134578
    168 C54         7.8610   -0.3950    2.1450 c3        1 MOL     -0.263182
    169 H78         8.9000   -0.3930    1.8150 h1        1 MOL      0.102112
    170 H79         7.7040    0.4150    2.8570 h1        1 MOL      0.102112
    171 H80         7.6340   -1.3480    2.6230 h1        1 MOL      0.102112
    172 H81         6.6850   -1.0120    0.4550 hn        1 MOL      0.124971
    173 Ca1        -1.3590    0.1770   -1.3540 Ca        1 MOL      1.766737
    174 O23        -0.4540   -2.4060   -1.4880 oh        1 MOL     -0.850630
    175 H82         0.4210   -2.3820   -1.0920 ho        1 MOL      0.414314
    176 H83        -0.4990   -3.2570   -1.9150 ho        1 MOL      0.414314
    177 O24        -1.6120   -0.8030   -3.8880 oh        1 MOL     -0.850630
    178 H84        -1.2780   -0.0640   -4.3830 ho        1 MOL      0.414314
    179 H85        -2.2370   -1.2260   -4.4800 ho        1 MOL      0.414314
@<TRIPOS>BOND
     1    1    2 1   
     2    1    4 1   
     3    1    5 1   
     4    1    6 1   
     5    2    3 2   
     6    2    7 1   
     7    7    8 1   
     8    7   15 1   
     9    8    9 1   
    10    8   11 1   
    11    8   16 1   
    12    9   10 2   
    13    9   19 1   
    14   11   12 1   
    15   11   17 1   
    16   11   18 1   
    17   12   13 1   
    18   12   14 1   
    19   19   20 1   
    20   19   28 1   
    21   20   21 1   
    22   20   23 1   
    23   20   29 1   
    24   21   22 2   
    25   21   41 1   
    26   23   24 1   
    27   23   30 1   
    28   23   31 1   
    29   24   25 1   
    30   24   32 1   
    31   24   33 1   
    32   25   26 1   
    33   25   34 1   
    34   25   35 1   
    35   26   27 1   
    36   26   36 1   
    37   26   37 1   
    38   27   38 1   
    39   27   39 1   
    40   27   40 1   
    41   41   42 1   
    42   41   49 1   
    43   42   43 1   
    44   42   45 1   
    45   42   50 1   
    46   43   44 2   
    47   43   53 1   
    48   45   46 1   
    49   45   51 1   
    50   45   52 1   
    51   46   47 1   
    52   46   48 1   
    53   53   54 1   
    54   53   57 1   
    55   54   55 1   
    56   54   58 1   
    57   54   59 1   
    58   55   56 2   
    59   55   60 1   
    60   60   61 1   
    61   60   68 1   
    62   61   62 1   
    63   61   64 1   
    64   61   69 1   
    65   62   63 2   
    66   62   74 1   
    67   64   65 1   
    68   64   70 1   
    69   64   71 1   
    70   65   66 1   
    71   65   67 2   
    72   66   72 1   
    73   66   73 1   
    74   74   75 1   
    75   74   78 1   
    76   75   76 1   
    77   75   79 1   
    78   75   80 1   
    79   76   77 2   
    80   76   81 1   
    81   81   82 1   
    82   81   93 1   
    83   82   83 1   
    84   82   85 1   
    85   82   94 1   
    86   83   84 2   
    87   83  102 1   
    88   85   86 1   
    89   85   95 1   
    90   85   96 1   
    91   86   87 ar  
    92   86   88 ar  
    93   87   89 ar  
    94   87   97 1   
    95   88   90 ar  
    96   88   98 1   
    97   89   91 ar  
    98   89   99 1   
    99   90   91 ar  
   100   90  100 1   
   101   91   92 1   
   102   92  101 1   
   103  102  103 1   
   104  102  110 1   
   105  103  104 1   
   106  103  106 1   
   107  103  111 1   
   108  104  105 2   
   109  104  121 1   
   110  106  107 1   
   111  106  108 1   
   112  106  112 1   
   113  107  109 1   
   114  107  113 1   
   115  107  114 1   
   116  108  115 1   
   117  108  116 1   
   118  108  117 1   
   119  109  118 1   
   120  109  119 1   
   121  109  120 1   
   122  121  122 1   
   123  121  127 1   
   124  122  123 1   
   125  122  125 1   
   126  122  128 1   
   127  123  124 2   
   128  123  132 1   
   129  125  126 1   
   130  125  129 1   
   131  125  130 1   
   132  126  131 1   
   133  132  133 1   
   134  132  137 1   
   135  133  134 1   
   136  133  136 1   
   137  133  138 1   
   138  134  135 2   
   139  134  142 1   
   140  136  139 1   
   141  136  140 1   
   142  136  141 1   
   143  142  143 1   
   144  142  147 1   
   145  143  144 1   
   146  143  146 1   
   147  143  148 1   
   148  144  145 2   
   149  144  152 1   
   150  146  149 1   
   151  146  150 1   
   152  146  151 1   
   153  152  153 1   
   154  152  161 1   
   155  153  154 1   
   156  153  156 1   
   157  153  162 1   
   158  154  155 2   
   159  154  167 1   
   160  156  157 1   
   161  156  163 1   
   162  156  164 1   
   163  157  158 1   
   164  157  165 1   
   165  157  166 1   
   166  158  159 1   
   167  158  160 1   
   168  167  168 1   
   169  167  172 1   
   170  168  169 1   
   171  168  170 1   
   172  168  171 1   
   173  174  175 1   
   174  174  176 1   
   175  177  178 1   
   176  177  179 1   
@<TRIPOS>SUBSTRUCTURE
     1 MOL         1 TEMP              0 ****  ****    0 ROOT
