@<TRIPOS>MOLECULE
MOL
  189   185     1     0     0
SMALL
resp


@<TRIPOS>ATOM
      1 C1         -1.5890    2.9950    6.1700 c3        1 MOL     -0.243133
      2 C2         -1.3700    2.4380    4.6780 c         1 MOL      0.663557
      3 O1         -0.2270    2.1950    4.2360 o         1 MOL     -0.596567
      4 H1         -0.7100    3.5610    6.4790 hc        1 MOL      0.060988
      5 H2         -2.4640    3.6450    6.1910 hc        1 MOL      0.060988
      6 H3         -1.7400    2.1580    6.8520 hc        1 MOL      0.060988
      7 N1         -2.4760    2.2270    3.9400 n         1 MOL     -0.598072
      8 C3         -2.5630    1.9390    2.5380 c3        1 MOL      0.096336
      9 C4         -2.7630    3.2620    1.7720 c         1 MOL      0.529984
     10 O2         -3.7420    4.0220    1.9840 o         1 MOL     -0.541327
     11 C5         -3.6490    0.8760    2.5250 c3        1 MOL     -0.327979
     12 C6         -4.0750    0.3820    1.1270 c         1 MOL      0.819534
     13 O3         -3.4910    0.6010    0.0490 o         1 MOL     -0.680849
     14 O4         -5.0710   -0.3680    1.0790 o         1 MOL     -0.680849
     15 H4         -3.3780    2.3180    4.3970 hn        1 MOL      0.337506
     16 H5         -1.6000    1.5120    2.2420 h1        1 MOL      0.069123
     17 H6         -4.5190    1.3220    2.9990 hc        1 MOL      0.089371
     18 H7         -3.3160   -0.0110    3.0610 hc        1 MOL      0.089371
     19 N2         -1.7180    3.5990    0.9980 n         1 MOL     -0.366894
     20 C7         -1.4740    4.8930    0.4390 c3        1 MOL     -0.045903
     21 C8         -2.1560    5.1520   -0.8680 c         1 MOL      0.504835
     22 O5         -2.6120    6.2570   -1.1510 o         1 MOL     -0.550901
     23 C9          0.0580    5.1700    0.3210 c3        1 MOL      0.025282
     24 C10         0.3680    6.5680   -0.1960 c3        1 MOL     -0.079587
     25 C11        -0.1290    7.7340    0.6290 c3        1 MOL     -0.050849
     26 C12         0.4750    7.6720    2.0710 c3        1 MOL      0.194490
     27 N3          0.3180    8.9980    2.6150 n4        1 MOL     -0.521782
     28 H8         -1.0170    2.8710    0.9150 hn        1 MOL      0.256898
     29 H9         -1.8470    5.6580    1.1050 h1        1 MOL      0.088016
     30 H10         0.3680    4.5460   -0.5210 hc        1 MOL      0.018392
     31 H11         0.6020    4.8950    1.2210 hc        1 MOL      0.018392
     32 H12        -0.0680    6.7980   -1.1670 hc        1 MOL      0.039685
     33 H13         1.4540    6.5720   -0.2870 hc        1 MOL      0.039685
     34 H14        -1.2030    7.6120    0.6700 hc        1 MOL      0.031707
     35 H15         0.1870    8.7010    0.2280 hc        1 MOL      0.031707
     36 H16         1.5320    7.4250    1.9220 hx        1 MOL      0.042725
     37 H17         0.0780    6.9070    2.7330 hx        1 MOL      0.042725
     38 H18         0.8120    9.6840    2.0680 hn        1 MOL      0.363188
     39 H19        -0.6730    9.2160    2.6840 hn        1 MOL      0.363188
     40 H20         0.7070    8.9670    3.5500 hn        1 MOL      0.363188
     41 N4         -2.5160    4.0640   -1.5820 n         1 MOL     -0.267748
     42 C13        -3.2610    3.9980   -2.8570 c3        1 MOL      0.161387
     43 C14        -4.6910    3.3430   -2.7870 c         1 MOL      0.365731
     44 O6         -5.6810    3.6220   -3.5300 o         1 MOL     -0.526438
     45 C15        -2.5080    3.3720   -3.9930 c3        1 MOL     -0.322815
     46 C16        -1.8950    1.9900   -3.5680 c         1 MOL      0.801658
     47 O7         -2.2200    1.4160   -2.5330 o         1 MOL     -0.687386
     48 O8         -1.0790    1.5950   -4.4360 o         1 MOL     -0.687386
     49 H21        -2.1870    3.1900   -1.2150 hn        1 MOL      0.138026
     50 H22        -3.5300    5.0290   -3.0660 h1        1 MOL      0.041060
     51 H23        -1.7210    4.0980   -4.2120 hc        1 MOL      0.084154
     52 H24        -3.2340    3.2950   -4.7920 hc        1 MOL      0.084154
     53 N5         -4.8850    2.3670   -1.8400 n         1 MOL     -0.069363
     54 C17        -6.1270    2.1320   -1.2130 c3        1 MOL     -0.189964
     55 C18        -6.8440    0.8360   -1.6120 c         1 MOL      0.593062
     56 O9         -8.0730    0.8260   -1.6580 o         1 MOL     -0.577172
     57 H25        -4.0560    1.9620   -1.4310 hn        1 MOL      0.111196
     58 H26        -6.8070    2.9530   -1.4520 h1        1 MOL      0.090959
     59 H27        -6.0250    2.1350   -0.1230 h1        1 MOL      0.090959
     60 N6         -6.0540   -0.2060   -1.8790 n         1 MOL     -0.272336
     61 C19        -6.5910   -1.5140   -2.3830 c3        1 MOL     -0.006332
     62 C20        -6.9960   -2.5500   -1.3080 c         1 MOL      0.347485
     63 O10        -7.5860   -3.5800   -1.5970 o         1 MOL     -0.520773
     64 C21        -5.5940   -2.1120   -3.4890 c3        1 MOL     -0.264048
     65 C22        -4.2180   -1.8730   -2.8250 c         1 MOL      0.676965
     66 O11        -3.8010   -2.1930   -1.6520 o         1 MOL     -0.644882
     67 O12        -3.4170   -1.2210   -3.5480 o         1 MOL     -0.644882
     68 H28        -5.0530   -0.2310   -1.7280 hn        1 MOL      0.125324
     69 H29        -7.4840   -1.3560   -2.9930 h1        1 MOL      0.117480
     70 H30        -5.5800   -1.5320   -4.4150 hc        1 MOL      0.102636
     71 H31        -5.6880   -3.1820   -3.6800 hc        1 MOL      0.102636
     72 N7         -6.6590   -2.3610   -0.0190 n         1 MOL     -0.074977
     73 C23        -6.9670   -3.3640    0.9850 c3        1 MOL     -0.289012
     74 C24        -5.8010   -4.1880    1.4220 c         1 MOL      0.644943
     75 O13        -5.8420   -4.9710    2.3480 o         1 MOL     -0.607342
     76 H32        -6.1120   -1.5930    0.3360 hn        1 MOL      0.167209
     77 H33        -7.8870   -3.9390    0.8950 h1        1 MOL      0.114540
     78 H34        -6.9910   -2.6290    1.7920 h1        1 MOL      0.114540
     79 N8         -4.6610   -3.8460    0.8270 n         1 MOL     -0.312875
     80 C25        -3.2740   -4.4270    1.1000 c3        1 MOL     -0.100191
     81 C26        -2.2060   -3.3070    1.2850 c         1 MOL      0.722665
     82 O14        -2.3210   -2.1950    0.7740 o         1 MOL     -0.713634
     83 C27        -2.8250   -5.3990    0.0420 c3        1 MOL      0.337196
     84 C28        -3.3650   -6.8660    0.2190 c3        1 MOL     -0.315062
     85 O15        -3.1750   -4.9490   -1.2710 oh        1 MOL     -0.583731
     86 H35        -4.6900   -3.0240    0.2510 hn        1 MOL      0.236636
     87 H36        -3.3550   -4.9020    2.0790 h1        1 MOL      0.072618
     88 H37        -1.7400   -5.3830    0.1550 h1        1 MOL     -0.007985
     89 H38        -3.4280   -4.0310   -1.2480 ho        1 MOL      0.354835
     90 H39        -4.4460   -6.8000    0.2090 hc        1 MOL      0.086694
     91 H40        -3.0780   -7.6380   -0.5020 hc        1 MOL      0.086694
     92 H41        -3.0600   -7.2520    1.1940 hc        1 MOL      0.086694
     93 N9         -1.1530   -3.7100    1.9300 n         1 MOL     -0.536697
     94 C29         0.0980   -2.9740    2.0820 c3        1 MOL      0.098694
     95 C30         1.2780   -3.8050    1.4960 c         1 MOL      0.487521
     96 O16         1.3290   -5.0160    1.4580 o         1 MOL     -0.559560
     97 C31         0.3680   -2.6320    3.5500 c3        1 MOL     -0.021605
     98 C32        -0.7620   -1.7790    4.1690 c3        1 MOL     -0.054234
     99 C33         1.8090   -1.9770    3.7710 c3        1 MOL     -0.029362
    100 C34        -0.4240   -1.1690    5.5270 c3        1 MOL     -0.086330
    101 H42        -1.2140   -4.6810    2.2230 hn        1 MOL      0.285099
    102 H43        -0.0250   -1.9590    1.6870 h1        1 MOL      0.070774
    103 H44         0.3450   -3.5100    4.2010 hc        1 MOL      0.017537
    104 H45        -1.6580   -2.4010    4.2350 hc        1 MOL      0.056054
    105 H46        -1.0330   -0.9460    3.5160 hc        1 MOL      0.056054
    106 H47         2.6370   -2.6060    3.4500 hc        1 MOL      0.009329
    107 H48         1.8530   -0.9520    3.3850 hc        1 MOL      0.009329
    108 H49         1.8840   -2.0120    4.8600 hc        1 MOL      0.009329
    109 H50        -0.2960   -1.8970    6.3250 hc        1 MOL      0.029778
    110 H51         0.3400   -0.3920    5.5850 hc        1 MOL      0.029778
    111 H52        -1.3460   -0.6910    5.8660 hc        1 MOL      0.029778
    112 N10         2.1310   -3.0140    0.8980 n         1 MOL     -0.107160
    113 C35         3.2500   -3.3540   -0.0240 c3        1 MOL     -0.024573
    114 C36         4.5700   -2.7040    0.4390 c         1 MOL      0.272729
    115 O17         4.5550   -1.8320    1.3180 o         1 MOL     -0.350923
    116 C37         2.9240   -2.8990   -1.4650 c3        1 MOL      0.305843
    117 C38         1.8550   -3.6480   -2.1910 c3        1 MOL     -0.332940
    118 O18         2.8620   -1.4760   -1.5940 oh        1 MOL     -0.573514
    119 H53         1.9280   -2.0470    1.0880 hn        1 MOL      0.020288
    120 H54         3.4490   -4.4230    0.0090 h1        1 MOL      0.090406
    121 H55         3.8380   -3.0550   -2.0200 h1        1 MOL      0.011491
    122 H56         2.0590   -1.2430   -1.1060 ho        1 MOL      0.308082
    123 H57         2.2750   -4.3360   -2.9270 hc        1 MOL      0.095840
    124 H58         1.2290   -4.2210   -1.5040 hc        1 MOL      0.095840
    125 H59         1.1920   -2.9420   -2.6970 hc        1 MOL      0.095840
    126 N11         5.7230   -3.1070   -0.1190 n         1 MOL     -0.121223
    127 C39         7.0810   -2.5710    0.1370 c3        1 MOL     -0.211410
    128 C40         7.1490   -0.9770    0.0860 c         1 MOL      0.299247
    129 O19         7.7650   -0.2520    0.9150 o         1 MOL     -0.496877
    130 C41         8.1380   -3.3170   -0.7870 c3        1 MOL      0.455318
    131 C42         9.3720   -3.4890   -0.0790 c3        1 MOL     -0.402174
    132 O20         7.6750   -4.6040   -1.2950 oh        1 MOL     -0.588980
    133 H60         5.6410   -3.8020   -0.8320 hn        1 MOL      0.148232
    134 H61         7.3820   -2.7590    1.1680 h1        1 MOL      0.165608
    135 H62         8.3570   -2.6650   -1.6240 h1        1 MOL     -0.038655
    136 H63         8.1270   -4.8880   -2.0930 ho        1 MOL      0.377543
    137 H64         9.8270   -2.4940   -0.0210 hc        1 MOL      0.110253
    138 H65         9.2400   -3.9700    0.8950 hc        1 MOL      0.110253
    139 H66        10.1830   -3.9150   -0.6590 hc        1 MOL      0.110253
    140 N12         6.4970   -0.4020   -0.9240 n         1 MOL     -0.094004
    141 C43         6.5540    1.0720   -1.1010 c3        1 MOL     -0.099600
    142 C44         5.6820    1.8700   -0.0570 c         1 MOL      0.377023
    143 O21         5.6370    3.1200   -0.0800 o         1 MOL     -0.513587
    144 C45         5.9550    1.3510   -2.5220 c3        1 MOL     -0.415035
    145 C46         6.8950    1.0800   -3.6590 c3        1 MOL      0.210876
    146 C47         8.3100    1.6960   -3.6730 c3        1 MOL     -0.120946
    147 C48         9.1830    0.9520   -4.6820 c3        1 MOL      0.158118
    148 N13        10.5230    1.6190   -4.8330 n4        1 MOL     -0.338561
    149 H67         5.7890   -0.9610   -1.3880 hn        1 MOL      0.174260
    150 H68         7.5910    1.4070   -1.0380 h1        1 MOL      0.140162
    151 H69         5.7980    2.4210   -2.5840 hc        1 MOL      0.177361
    152 H70         4.9870    0.8570   -2.6860 hc        1 MOL      0.177361
    153 H71         6.3520    1.3550   -4.5590 hc        1 MOL     -0.020579
    154 H72         7.0930    0.0050   -3.6180 hc        1 MOL     -0.020579
    155 H73         8.7220    1.5530   -2.6700 hc        1 MOL      0.045198
    156 H74         8.1850    2.7420   -3.9570 hc        1 MOL      0.045198
    157 H75         8.5610    0.9980   -5.5770 hx        1 MOL      0.040997
    158 H76         9.1860   -0.1080   -4.4130 hx        1 MOL      0.040997
    159 H77        11.1860    1.3540   -4.1150 hn        1 MOL      0.291348
    160 H78        10.9440    1.5300   -5.7360 hn        1 MOL      0.291348
    161 H79        10.4310    2.6190   -4.7230 hn        1 MOL      0.291348
    162 N14         4.8700    1.0700    0.6930 n         1 MOL     -0.113587
    163 C49         4.0160    1.5060    1.8230 c3        1 MOL     -0.096856
    164 C50         4.4160    1.0730    3.2600 c         1 MOL      0.404631
    165 O22         4.0400    1.7900    4.1850 o         1 MOL     -0.513993
    166 C51         2.5560    1.0530    1.4940 c3        1 MOL      0.003190
    167 C52         2.0080    1.4900    0.1070 c3        1 MOL      0.100970
    168 C53         0.7330    0.7160   -0.1960 c         1 MOL      0.605717
    169 O23         0.6930   -0.5460   -0.2880 o         1 MOL     -0.690025
    170 O24        -0.3940    1.2710   -0.2640 o         1 MOL     -0.690025
    171 H80         4.7350    0.1370    0.3280 hn        1 MOL      0.134941
    172 H81         3.8790    2.5910    1.8200 h1        1 MOL      0.091299
    173 H82         1.8960    1.4890    2.2440 hc        1 MOL      0.089033
    174 H83         2.5180   -0.0310    1.6200 hc        1 MOL      0.089033
    175 H84         2.6690    1.2340   -0.7120 hc        1 MOL     -0.031403
    176 H85         1.8670    2.5700    0.0580 hc        1 MOL     -0.031403
    177 N15         5.1170   -0.0880    3.5100 n         1 MOL     -0.165532
    178 C54         5.5380   -0.7260    4.7920 c3        1 MOL     -0.126111
    179 H86         6.3780   -0.1740    5.2130 h1        1 MOL      0.076110
    180 H87         4.7050   -0.7120    5.4960 h1        1 MOL      0.076110
    181 H88         5.8380   -1.7570    4.6040 h1        1 MOL      0.076110
    182 H89         5.4200   -0.4800    2.6310 hn        1 MOL      0.140977
    183 Ca1        -1.7560   -0.7080   -1.3080 Ca        1 MOL      1.778377
    184 O25        -0.1940   -0.7710   -3.5930 oh        1 MOL     -0.846795
    185 H90         0.5400   -0.9970   -4.1590 ho        1 MOL      0.382615
    186 H91        -0.4650    0.1090   -3.8850 ho        1 MOL      0.382615
    187 O26        -1.2470   -3.1790   -2.1150 oh        1 MOL     -0.846795
    188 H92        -0.6890   -3.3050   -2.8810 ho        1 MOL      0.382615
    189 H93        -1.8390   -3.9330   -2.1240 ho        1 MOL      0.382615
@<TRIPOS>BOND
     1    1    2 1   
     2    1    4 1   
     3    1    5 1   
     4    1    6 1   
     5    2    3 2   
     6    2    7 1   
     7    7    8 1   
     8    7   15 1   
     9    8    9 1   
    10    8   11 1   
    11    8   16 1   
    12    9   10 2   
    13    9   19 1   
    14   11   12 1   
    15   11   17 1   
    16   11   18 1   
    17   12   13 1   
    18   12   14 1   
    19   19   20 1   
    20   19   28 1   
    21   20   21 1   
    22   20   23 1   
    23   20   29 1   
    24   21   22 2   
    25   21   41 1   
    26   23   24 1   
    27   23   30 1   
    28   23   31 1   
    29   24   25 1   
    30   24   32 1   
    31   24   33 1   
    32   25   26 1   
    33   25   34 1   
    34   25   35 1   
    35   26   27 1   
    36   26   36 1   
    37   26   37 1   
    38   27   38 1   
    39   27   39 1   
    40   27   40 1   
    41   41   42 1   
    42   41   49 1   
    43   42   43 1   
    44   42   45 1   
    45   42   50 1   
    46   43   44 2   
    47   43   53 1   
    48   45   46 1   
    49   45   51 1   
    50   45   52 1   
    51   46   47 1   
    52   46   48 1   
    53   53   54 1   
    54   53   57 1   
    55   54   55 1   
    56   54   58 1   
    57   54   59 1   
    58   55   56 2   
    59   55   60 1   
    60   60   61 1   
    61   60   68 1   
    62   61   62 1   
    63   61   64 1   
    64   61   69 1   
    65   62   63 2   
    66   62   72 1   
    67   64   65 1   
    68   64   70 1   
    69   64   71 1   
    70   65   66 1   
    71   65   67 1   
    72   72   73 1   
    73   72   76 1   
    74   73   74 1   
    75   73   77 1   
    76   73   78 1   
    77   74   75 2   
    78   74   79 1   
    79   79   80 1   
    80   79   86 1   
    81   80   81 1   
    82   80   83 1   
    83   80   87 1   
    84   81   82 2   
    85   81   93 1   
    86   83   84 1   
    87   83   85 1   
    88   83   88 1   
    89   84   90 1   
    90   84   91 1   
    91   84   92 1   
    92   85   89 1   
    93   93   94 1   
    94   93  101 1   
    95   94   95 1   
    96   94   97 1   
    97   94  102 1   
    98   95   96 2   
    99   95  112 1   
   100   97   98 1   
   101   97   99 1   
   102   97  103 1   
   103   98  100 1   
   104   98  104 1   
   105   98  105 1   
   106   99  106 1   
   107   99  107 1   
   108   99  108 1   
   109  100  109 1   
   110  100  110 1   
   111  100  111 1   
   112  112  113 1   
   113  112  119 1   
   114  113  114 1   
   115  113  116 1   
   116  113  120 1   
   117  114  115 2   
   118  114  126 1   
   119  116  117 1   
   120  116  118 1   
   121  116  121 1   
   122  117  123 1   
   123  117  124 1   
   124  117  125 1   
   125  118  122 1   
   126  126  127 1   
   127  126  133 1   
   128  127  128 1   
   129  127  130 1   
   130  127  134 1   
   131  128  129 2   
   132  128  140 1   
   133  130  131 1   
   134  130  132 1   
   135  130  135 1   
   136  131  137 1   
   137  131  138 1   
   138  131  139 1   
   139  132  136 1   
   140  140  141 1   
   141  140  149 1   
   142  141  142 1   
   143  141  144 1   
   144  141  150 1   
   145  142  143 2   
   146  142  162 1   
   147  144  145 1   
   148  144  151 1   
   149  144  152 1   
   150  145  146 1   
   151  145  153 1   
   152  145  154 1   
   153  146  147 1   
   154  146  155 1   
   155  146  156 1   
   156  147  148 1   
   157  147  157 1   
   158  147  158 1   
   159  148  159 1   
   160  148  160 1   
   161  148  161 1   
   162  162  163 1   
   163  162  171 1   
   164  163  164 1   
   165  163  166 1   
   166  163  172 1   
   167  164  165 2   
   168  164  177 1   
   169  166  167 1   
   170  166  173 1   
   171  166  174 1   
   172  167  168 1   
   173  167  175 1   
   174  167  176 1   
   175  168  169 1   
   176  168  170 1   
   177  177  178 1   
   178  177  182 1   
   179  178  179 1   
   180  178  180 1   
   181  178  181 1   
   182  184  185 1   
   183  184  186 1   
   184  187  188 1   
   185  187  189 1   
@<TRIPOS>SUBSTRUCTURE
     1 MOL         1 TEMP              0 ****  ****    0 ROOT
