@<TRIPOS>MOLECULE
MOL
  179   176     1     0     0
SMALL
resp


@<TRIPOS>ATOM
      1 C1          1.7980    3.9560    4.0680 c3        1 MOL     -0.362614
      2 C2          1.0270    3.3620    2.8490 c         1 MOL      0.692015
      3 O1          1.7080    2.8640    1.9150 o         1 MOL     -0.566157
      4 H1          1.1520    4.6540    4.6010 hc        1 MOL      0.093051
      5 H2          2.0940    3.1500    4.7390 hc        1 MOL      0.093051
      6 H3          2.6860    4.4800    3.7160 hc        1 MOL      0.093051
      7 N1         -0.3140    3.3550    2.9080 n         1 MOL     -0.743014
      8 C3         -1.2800    2.8250    1.9640 c3        1 MOL      0.123641
      9 C4         -2.1010    3.9180    1.3420 c         1 MOL      0.586324
     10 O2         -3.3380    4.0210    1.5830 o         1 MOL     -0.481201
     11 C5         -2.2230    1.8190    2.6880 c3        1 MOL     -0.000940
     12 C6         -3.0910    0.9920    1.7680 c         1 MOL      0.433513
     13 O3         -4.2260    0.5340    2.2100 o         1 MOL     -0.565149
     14 O4         -2.5930    0.5460    0.6930 o         1 MOL     -0.565149
     15 H4         -0.6760    3.5440    3.8340 hn        1 MOL      0.373373
     16 H5         -0.9050    2.2350    1.1170 h1        1 MOL      0.054082
     17 H6         -2.8840    2.2800    3.4320 hc        1 MOL      0.017177
     18 H7         -1.5620    1.1700    3.2640 hc        1 MOL      0.017177
     19 N2         -1.5060    4.8300    0.6010 n         1 MOL     -0.478069
     20 C7         -2.1370    5.9500    0.0210 c3        1 MOL     -0.054235
     21 C8         -3.2540    5.6880   -1.0500 c         1 MOL      0.414738
     22 O5         -4.1200    6.4410   -1.3230 o         1 MOL     -0.504208
     23 C9         -0.9590    6.7930   -0.5580 c3        1 MOL      0.096712
     24 C10         0.1710    7.1520    0.3980 c3        1 MOL     -0.031399
     25 C11         1.0460    8.2500   -0.2180 c3        1 MOL      0.037018
     26 C12         2.2620    8.8130    0.6340 c3        1 MOL     -0.214868
     27 N3          3.3080    7.7640    0.8250 n4        1 MOL     -0.229511
     28 H8         -0.5440    4.6320    0.3980 hn        1 MOL      0.354681
     29 H9         -2.5210    6.6750    0.7260 h1        1 MOL      0.102295
     30 H10        -1.3160    7.6520   -1.1310 hc        1 MOL     -0.008937
     31 H11        -0.5110    6.2050   -1.3580 hc        1 MOL     -0.008937
     32 H12         0.7090    6.2780    0.7600 hc        1 MOL      0.002075
     33 H13        -0.3440    7.5810    1.2630 hc        1 MOL      0.002075
     34 H14         0.3640    9.0870   -0.4050 hc        1 MOL      0.046522
     35 H15         1.3790    7.9110   -1.2100 hc        1 MOL      0.046522
     36 H16         1.7750    9.0740    1.5700 hx        1 MOL      0.151423
     37 H17         2.8000    9.5680    0.0650 hx        1 MOL      0.151423
     38 H18         3.0130    7.1090    1.5330 hn        1 MOL      0.311975
     39 H19         3.4620    7.2180   -0.0110 hn        1 MOL      0.311975
     40 H20         4.1600    8.2050    1.1330 hn        1 MOL      0.311975
     41 N4         -3.1310    4.5710   -1.7250 n         1 MOL     -0.225417
     42 C13        -4.0570    3.9400   -2.6170 c3        1 MOL      0.024048
     43 C14        -5.2740    3.4150   -1.8340 c         1 MOL      0.432577
     44 O6         -6.3210    3.3150   -2.4180 o         1 MOL     -0.517255
     45 C15        -3.5010    2.7990   -3.4720 c3        1 MOL     -0.384034
     46 C16        -2.8240    1.8130   -2.5650 c         1 MOL      0.935116
     47 O7         -1.8690    2.0550   -1.8500 o         1 MOL     -0.810987
     48 O8         -3.2600    0.6270   -2.6610 o         1 MOL     -0.810987
     49 H21        -2.3120    3.9770   -1.6220 hn        1 MOL      0.201522
     50 H22        -4.4350    4.6890   -3.3170 h1        1 MOL      0.081113
     51 H23        -2.6980    3.1780   -4.1110 hc        1 MOL      0.109671
     52 H24        -4.3580    2.4050   -3.9980 hc        1 MOL      0.109671
     53 N5         -5.1180    3.0820   -0.5680 n         1 MOL     -0.044371
     54 C17        -6.1300    2.4230    0.2460 c3        1 MOL     -0.022471
     55 C18        -6.7010    1.0800   -0.2630 c         1 MOL      0.452791
     56 O9         -7.9650    1.0200   -0.4490 o         1 MOL     -0.566357
     57 H25        -4.1720    3.0950   -0.2220 hn        1 MOL      0.011180
     58 H26        -6.9980    3.0810    0.3570 h1        1 MOL      0.047094
     59 H27        -5.6200    2.2990    1.2060 h1        1 MOL      0.047094
     60 N6         -5.9260    0.0580   -0.5040 n         1 MOL     -0.108882
     61 C19        -6.3980   -1.2960   -0.7050 c3        1 MOL      0.061710
     62 C20        -6.3300   -2.1820    0.6370 c         1 MOL      0.302641
     63 O10        -6.7800   -3.3220    0.6360 o         1 MOL     -0.508918
     64 C21        -5.8160   -1.9230   -1.9350 c3        1 MOL     -0.292009
     65 C22        -4.3050   -2.3180   -1.8040 c         1 MOL      0.439525
     66 N7         -3.7640   -2.8050   -2.9110 n         1 MOL     -0.649277
     67 O11        -3.5760   -2.1210   -0.8430 o         1 MOL     -0.351641
     68 H28        -4.9840    0.2270   -0.1830 hn        1 MOL      0.062080
     69 H29        -7.4760   -1.2780   -0.8720 h1        1 MOL      0.103248
     70 H30        -6.0020   -1.1540   -2.6830 hc        1 MOL      0.115707
     71 H31        -6.3490   -2.8520   -2.1470 hc        1 MOL      0.115707
     72 H32        -4.3990   -3.0690   -3.6500 hn        1 MOL      0.324038
     73 H33        -2.7950   -3.0920   -2.9000 hn        1 MOL      0.324038
     74 N8         -5.7490   -1.7260    1.7070 n         1 MOL     -0.117148
     75 C23        -5.7260   -2.4980    2.9370 c3        1 MOL     -0.052143
     76 C24        -4.3700   -3.1440    3.2370 c         1 MOL      0.494910
     77 O12        -4.2990   -3.8340    4.2770 o         1 MOL     -0.563202
     78 H34        -5.1500   -0.9230    1.6240 hn        1 MOL      0.083382
     79 H35        -6.4860   -3.2870    2.9030 h1        1 MOL      0.082677
     80 H36        -6.0270   -1.8730    3.7770 h1        1 MOL      0.082677
     81 N9         -3.3640   -3.0380    2.3170 n         1 MOL     -0.288798
     82 C25        -2.1370   -3.7440    2.5110 c3        1 MOL     -0.086277
     83 C26        -1.0460   -3.0000    1.6560 c         1 MOL      0.584058
     84 O13        -1.3370   -2.1260    0.8000 o         1 MOL     -0.744850
     85 C27        -2.3160   -5.2480    2.1740 c3        1 MOL     -0.105580
     86 C28        -2.7400   -5.5050    0.6890 ca        1 MOL      0.011438
     87 C29        -1.7430   -5.7650   -0.2760 ca        1 MOL     -0.116735
     88 C30        -4.1040   -5.3700    0.3420 ca        1 MOL     -0.116735
     89 C31        -2.0650   -5.8660   -1.6910 ca        1 MOL     -0.338011
     90 C32        -4.4700   -5.5320   -1.0380 ca        1 MOL     -0.338011
     91 C33        -3.4860   -5.7120   -2.0130 ca        1 MOL      0.462717
     92 O14        -3.9030   -5.7350   -3.2780 oh        1 MOL     -0.591163
     93 H37        -3.4260   -2.5570    1.4310 hn        1 MOL      0.387929
     94 H38        -1.6780   -3.6940    3.5020 h1        1 MOL      0.092399
     95 H39        -3.0430   -5.6740    2.8720 hc        1 MOL      0.071464
     96 H40        -1.4170   -5.8310    2.4130 hc        1 MOL      0.071464
     97 H41        -0.7530   -5.6170    0.1290 ha        1 MOL      0.139696
     98 H42        -4.8280   -5.0860    1.0890 ha        1 MOL      0.139696
     99 H43        -1.3390   -5.8360   -2.4880 ha        1 MOL      0.152789
    100 H44        -5.4990   -5.4020   -1.3290 ha        1 MOL      0.152789
    101 H45        -4.8520   -5.6620   -3.3530 ho        1 MOL      0.427175
    102 N10         0.2140   -3.2820    2.0130 n         1 MOL     -0.396874
    103 C34         1.3940   -2.6570    1.5000 c3        1 MOL     -0.069771
    104 C35         2.4320   -3.6230    0.9040 c         1 MOL      0.359400
    105 O15         2.7600   -4.7080    1.3820 o         1 MOL     -0.529806
    106 C36         2.1130   -1.6740    2.4010 c3        1 MOL      0.005121
    107 C37         2.8130   -2.3370    3.5940 c3        1 MOL     -0.481129
    108 C38         1.1590   -0.5680    2.8800 c3        1 MOL     -0.506065
    109 C39         3.6400   -1.5090    4.5630 c3        1 MOL     -0.223794
    110 H46         0.2540   -3.8670    2.8380 hn        1 MOL      0.289859
    111 H47         1.0500   -1.9910    0.6990 h1        1 MOL      0.205521
    112 H48         2.8970   -1.1940    1.8260 hc        1 MOL      0.166791
    113 H49         3.4950   -3.0820    3.1910 hc        1 MOL      0.194634
    114 H50         2.1460   -2.8980    4.2530 hc        1 MOL      0.194634
    115 H51         1.7300    0.3370    3.1220 hc        1 MOL      0.184913
    116 H52         0.4610   -0.2250    2.1250 hc        1 MOL      0.184913
    117 H53         0.4650   -0.9230    3.6450 hc        1 MOL      0.184913
    118 H54         4.2260   -2.1890    5.1890 hc        1 MOL      0.078595
    119 H55         4.3150   -0.9430    3.9250 hc        1 MOL      0.078595
    120 H56         2.9720   -0.8490    5.1250 hc        1 MOL      0.078595
    121 N11         3.0950   -3.0950   -0.1030 n         1 MOL     -0.124672
    122 C40         4.3700   -3.6590   -0.6900 c3        1 MOL      0.076482
    123 C41         5.6410   -3.0380   -0.0160 c         1 MOL      0.393575
    124 O16         5.5330   -2.0430    0.6640 o         1 MOL     -0.358811
    125 C42         4.4480   -3.4900   -2.1770 c3        1 MOL     -0.223400
    126 O17         4.6420   -2.0860   -2.4420 oh        1 MOL     -0.255687
    127 H57         2.8360   -2.1350   -0.2920 hn        1 MOL     -0.038508
    128 H58         4.3640   -4.7460   -0.5940 h1        1 MOL      0.078041
    129 H59         3.5670   -3.8010   -2.7330 h1        1 MOL      0.109262
    130 H60         5.2760   -4.0200   -2.6430 h1        1 MOL      0.109262
    131 H61         4.6090   -1.9530   -3.3900 ho        1 MOL      0.325821
    132 N12         6.8600   -3.5120   -0.3240 n         1 MOL     -0.401868
    133 C43         8.1130   -2.8730    0.0030 c3        1 MOL      0.130766
    134 C44         8.2560   -1.4410   -0.6020 c         1 MOL      0.489624
    135 O18         8.6810   -0.5230    0.0940 o         1 MOL     -0.517704
    136 C45         9.3060   -3.7250   -0.3840 c3        1 MOL     -0.214329
    137 H62         6.8110   -4.3560   -0.8840 hn        1 MOL      0.264238
    138 H63         8.1380   -2.8660    1.0930 h1        1 MOL      0.079912
    139 H64        10.1880   -3.1350   -0.1410 hc        1 MOL      0.065567
    140 H65         9.2950   -4.7530   -0.0050 hc        1 MOL      0.065567
    141 H66         9.2650   -3.7820   -1.4700 hc        1 MOL      0.065567
    142 N13         7.7470   -1.1830   -1.8230 n         1 MOL     -0.343433
    143 C46         7.9370    0.1210   -2.5470 c3        1 MOL      0.057263
    144 C47         7.0980    1.2620   -1.8850 c         1 MOL      0.346624
    145 O19         7.6160    2.3900   -1.6480 o         1 MOL     -0.497287
    146 C48         7.5670   -0.0680   -3.9690 c3        1 MOL     -0.166612
    147 H67         7.2070   -1.9140   -2.2690 hn        1 MOL      0.195430
    148 H68         8.9440    0.5240   -2.5200 h1        1 MOL      0.102393
    149 H69         7.7190    0.7920   -4.6240 hc        1 MOL      0.041973
    150 H70         8.1040   -0.8840   -4.4370 hc        1 MOL      0.041973
    151 H71         6.5200   -0.3730   -3.9630 hc        1 MOL      0.041973
    152 N14         5.9220    0.8750   -1.3990 n         1 MOL     -0.042739
    153 C49         5.0590    1.7450   -0.6450 c3        1 MOL     -0.229760
    154 C50         5.7020    2.1770    0.7100 c         1 MOL      0.534284
    155 O20         5.5560    3.3310    1.1220 o         1 MOL     -0.595698
    156 C51         3.7250    0.9670   -0.3250 c3        1 MOL      0.245411
    157 C52         2.8000    0.7590   -1.5270 c3        1 MOL     -0.044504
    158 C53         1.5720    0.0480   -1.1070 c         1 MOL      0.671733
    159 O21         1.1440   -0.9280   -1.7490 o         1 MOL     -0.705004
    160 O22         0.7850    0.5490   -0.2790 o         1 MOL     -0.705004
    161 H72         5.5140   -0.0180   -1.6110 hn        1 MOL      0.122867
    162 H73         4.8450    2.6510   -1.2060 h1        1 MOL      0.097243
    163 H74         3.1350    1.4730    0.4390 hc        1 MOL     -0.025627
    164 H75         3.9680   -0.0020    0.1110 hc        1 MOL     -0.025627
    165 H76         3.2340    0.0750   -2.2440 hc        1 MOL     -0.057189
    166 H77         2.4940    1.7700   -1.7880 hc        1 MOL     -0.057189
    167 N15         6.3300    1.1760    1.3790 n         1 MOL     -0.064742
    168 C54         7.1690    1.4650    2.5150 c3        1 MOL     -0.598950
    169 H78         6.6690    2.1890    3.1590 h1        1 MOL      0.196579
    170 H79         7.3530    0.5480    3.0740 h1        1 MOL      0.196579
    171 H80         8.1170    1.8790    2.1710 h1        1 MOL      0.196579
    172 H81         6.3250    0.2860    0.9040 hn        1 MOL      0.135278
    173 Ca1        -1.4270   -0.4920   -1.1840 Ca        1 MOL      1.755503
    174 O23        -0.7940   -3.0450   -2.0470 oh        1 MOL     -0.799292
    175 H82        -0.9920   -3.8980   -1.6540 ho        1 MOL      0.392616
    176 H83        -0.1010   -3.2210   -2.6730 ho        1 MOL      0.392616
    177 O24        -0.7860   -0.7430   -3.7650 oh        1 MOL     -0.799292
    178 H84        -0.2220   -1.4340   -4.1120 ho        1 MOL      0.392616
    179 H85        -0.3900    0.0740   -4.0990 ho        1 MOL      0.392616
@<TRIPOS>BOND
     1    1    2 1   
     2    1    4 1   
     3    1    5 1   
     4    1    6 1   
     5    2    3 2   
     6    2    7 1   
     7    7    8 1   
     8    7   15 1   
     9    8    9 1   
    10    8   11 1   
    11    8   16 1   
    12    9   10 2   
    13    9   19 1   
    14   11   12 1   
    15   11   17 1   
    16   11   18 1   
    17   12   13 1   
    18   12   14 1   
    19   19   20 1   
    20   19   28 1   
    21   20   21 1   
    22   20   23 1   
    23   20   29 1   
    24   21   22 2   
    25   21   41 1   
    26   23   24 1   
    27   23   30 1   
    28   23   31 1   
    29   24   25 1   
    30   24   32 1   
    31   24   33 1   
    32   25   26 1   
    33   25   34 1   
    34   25   35 1   
    35   26   27 1   
    36   26   36 1   
    37   26   37 1   
    38   27   38 1   
    39   27   39 1   
    40   27   40 1   
    41   41   42 1   
    42   41   49 1   
    43   42   43 1   
    44   42   45 1   
    45   42   50 1   
    46   43   44 2   
    47   43   53 1   
    48   45   46 1   
    49   45   51 1   
    50   45   52 1   
    51   46   47 1   
    52   46   48 1   
    53   53   54 1   
    54   53   57 1   
    55   54   55 1   
    56   54   58 1   
    57   54   59 1   
    58   55   56 2   
    59   55   60 1   
    60   60   61 1   
    61   60   68 1   
    62   61   62 1   
    63   61   64 1   
    64   61   69 1   
    65   62   63 2   
    66   62   74 1   
    67   64   65 1   
    68   64   70 1   
    69   64   71 1   
    70   65   66 1   
    71   65   67 2   
    72   66   72 1   
    73   66   73 1   
    74   74   75 1   
    75   74   78 1   
    76   75   76 1   
    77   75   79 1   
    78   75   80 1   
    79   76   77 2   
    80   76   81 1   
    81   81   82 1   
    82   81   93 1   
    83   82   83 1   
    84   82   85 1   
    85   82   94 1   
    86   83   84 2   
    87   83  102 1   
    88   85   86 1   
    89   85   95 1   
    90   85   96 1   
    91   86   87 ar  
    92   86   88 ar  
    93   87   89 ar  
    94   87   97 1   
    95   88   90 ar  
    96   88   98 1   
    97   89   91 ar  
    98   89   99 1   
    99   90   91 ar  
   100   90  100 1   
   101   91   92 1   
   102   92  101 1   
   103  102  103 1   
   104  102  110 1   
   105  103  104 1   
   106  103  106 1   
   107  103  111 1   
   108  104  105 2   
   109  104  121 1   
   110  106  107 1   
   111  106  108 1   
   112  106  112 1   
   113  107  109 1   
   114  107  113 1   
   115  107  114 1   
   116  108  115 1   
   117  108  116 1   
   118  108  117 1   
   119  109  118 1   
   120  109  119 1   
   121  109  120 1   
   122  121  122 1   
   123  121  127 1   
   124  122  123 1   
   125  122  125 1   
   126  122  128 1   
   127  123  124 2   
   128  123  132 1   
   129  125  126 1   
   130  125  129 1   
   131  125  130 1   
   132  126  131 1   
   133  132  133 1   
   134  132  137 1   
   135  133  134 1   
   136  133  136 1   
   137  133  138 1   
   138  134  135 2   
   139  134  142 1   
   140  136  139 1   
   141  136  140 1   
   142  136  141 1   
   143  142  143 1   
   144  142  147 1   
   145  143  144 1   
   146  143  146 1   
   147  143  148 1   
   148  144  145 2   
   149  144  152 1   
   150  146  149 1   
   151  146  150 1   
   152  146  151 1   
   153  152  153 1   
   154  152  161 1   
   155  153  154 1   
   156  153  156 1   
   157  153  162 1   
   158  154  155 2   
   159  154  167 1   
   160  156  157 1   
   161  156  163 1   
   162  156  164 1   
   163  157  158 1   
   164  157  165 1   
   165  157  166 1   
   166  158  159 1   
   167  158  160 1   
   168  167  168 1   
   169  167  172 1   
   170  168  169 1   
   171  168  170 1   
   172  168  171 1   
   173  174  175 1   
   174  174  176 1   
   175  177  178 1   
   176  177  179 1   
@<TRIPOS>SUBSTRUCTURE
     1 MOL         1 TEMP              0 ****  ****    0 ROOT
