@<TRIPOS>MOLECULE
MOL
  175   173     1     0     0
SMALL
resp


@<TRIPOS>ATOM
      1 C1          0.0660    4.0910    5.4080 c3        1 MOL     -0.398684
      2 C2         -0.6110    3.9940    4.0020 c         1 MOL      0.778534
      3 O1          0.1020    4.0910    3.0430 o         1 MOL     -0.561048
      4 H1          1.0850    3.7060    5.3480 hc        1 MOL      0.094087
      5 H2          0.0910    5.1330    5.7280 hc        1 MOL      0.094087
      6 H3         -0.5020    3.5020    6.1270 hc        1 MOL      0.094087
      7 N1         -1.9630    3.7870    3.8780 n         1 MOL     -0.785429
      8 C3         -2.6380    3.4810    2.5800 c3        1 MOL      0.426552
      9 C4         -2.8800    4.6430    1.6370 c         1 MOL      0.510313
     10 O2         -3.6300    5.6110    1.9670 o         1 MOL     -0.611759
     11 C5         -3.9600    2.7300    2.8320 c3        1 MOL     -0.389546
     12 C6         -4.4700    2.0060    1.6040 c         1 MOL      0.865064
     13 O3         -5.6570    1.5810    1.6640 o         1 MOL     -0.684003
     14 O4         -3.6640    1.9050    0.6180 o         1 MOL     -0.684003
     15 H4         -2.4800    3.6570    4.7310 hn        1 MOL      0.343850
     16 H5         -1.8510    2.9030    2.0970 h1        1 MOL     -0.001861
     17 H6         -4.6730    3.3480    3.3680 hc        1 MOL      0.070175
     18 H7         -3.7150    1.9240    3.5330 hc        1 MOL      0.070175
     19 N2         -2.3700    4.5850    0.4140 n         1 MOL     -0.458594
     20 C7         -2.4180    5.6140   -0.6770 c3        1 MOL      0.383798
     21 C8         -3.3060    5.0210   -1.8160 c         1 MOL      0.291898
     22 O5         -3.5120    5.8470   -2.7190 o         1 MOL     -0.559308
     23 C9         -1.0180    6.0420   -1.0110 c3        1 MOL     -0.156108
     24 H8         -1.9650    3.6930    0.1620 hn        1 MOL      0.226004
     25 H9         -2.8200    6.5550   -0.3130 h1        1 MOL      0.001797
     26 H10        -0.4160    5.1480   -1.1590 hc        1 MOL      0.034575
     27 H11        -1.0290    6.7010   -1.8730 hc        1 MOL      0.034575
     28 H12        -0.5610    6.5140   -0.1440 hc        1 MOL      0.034575
     29 N3         -3.7580    3.7580   -1.9020 n         1 MOL     -0.124387
     30 C10        -4.6300    3.2630   -3.0470 c3        1 MOL      0.045814
     31 C11        -5.9130    2.5760   -2.6040 c         1 MOL      0.401485
     32 O6         -6.8230    2.3180   -3.4020 o         1 MOL     -0.566561
     33 C12        -3.8870    2.2580   -3.8680 c3        1 MOL     -0.087091
     34 C13        -3.1210    1.1300   -3.1410 c         1 MOL      0.544292
     35 O7         -3.6270    0.4800   -2.2050 o         1 MOL     -0.620941
     36 O8         -1.9600    0.8630   -3.5120 o         1 MOL     -0.620941
     37 H13        -3.5960    3.2300   -1.0530 hn        1 MOL      0.094895
     38 H14        -5.0420    4.0060   -3.7300 h1        1 MOL      0.092043
     39 H15        -3.1300    2.8700   -4.3420 hc        1 MOL      0.034880
     40 H16        -4.3950    1.8940   -4.7610 hc        1 MOL      0.034880
     41 N4         -6.1400    2.1540   -1.3270 n         1 MOL     -0.275426
     42 C14        -7.2590    1.3930   -0.8270 c3        1 MOL     -0.083655
     43 C15        -7.0300   -0.1350   -0.7590 c         1 MOL      0.487455
     44 O9         -7.8750   -0.8340   -0.1440 o         1 MOL     -0.615110
     45 H17        -5.3580    2.2290   -0.6960 hn        1 MOL      0.118157
     46 H18        -8.1850    1.5590   -1.3850 h1        1 MOL      0.101136
     47 H19        -7.5780    1.7120    0.1660 h1        1 MOL      0.101136
     48 N5         -5.9470   -0.6550   -1.3600 n         1 MOL     -0.351151
     49 C16        -5.9010   -1.9830   -2.0170 c3        1 MOL      0.034868
     50 C17        -5.9800   -3.2070   -1.0650 c         1 MOL      0.438831
     51 O10        -5.7780   -4.3580   -1.4660 o         1 MOL     -0.569541
     52 C18        -4.7840   -2.1960   -3.1210 c3        1 MOL     -0.165451
     53 C19        -3.3850   -2.4380   -2.5160 c         1 MOL      0.787939
     54 N6         -2.5030   -2.6040   -3.4550 n         1 MOL     -0.683471
     55 O11        -3.1920   -2.5200   -1.2840 o         1 MOL     -0.733958
     56 H20        -5.3420    0.0560   -1.7540 hn        1 MOL      0.297440
     57 H21        -6.8350   -2.0880   -2.5630 h1        1 MOL      0.079772
     58 H22        -4.6140   -1.2790   -3.7030 hc        1 MOL      0.046281
     59 H23        -5.0430   -2.9880   -3.8090 hc        1 MOL      0.046281
     60 H24        -2.7640   -2.6380   -4.4300 hn        1 MOL      0.342970
     61 H25        -1.5090   -2.4750   -3.3070 hn        1 MOL      0.342970
     62 N7         -6.1430   -3.0820    0.2110 n         1 MOL     -0.185155
     63 C20        -6.1150   -4.1650    1.1860 c3        1 MOL     -0.354243
     64 C21        -4.7650   -4.7240    1.6370 c         1 MOL      0.543028
     65 O12        -4.7660   -5.4690    2.6130 o         1 MOL     -0.579759
     66 H26        -6.1350   -2.1350    0.5530 hn        1 MOL      0.287121
     67 H27        -6.7630   -4.9610    0.8170 h1        1 MOL      0.145491
     68 H28        -6.5740   -3.7820    2.0930 h1        1 MOL      0.145491
     69 N8         -3.6870   -4.2320    1.0660 n         1 MOL      0.009273
     70 C22        -2.3460   -4.6930    1.2910 c3        1 MOL     -0.379038
     71 C23        -1.3280   -3.5490    1.4700 c         1 MOL      0.479720
     72 O13        -1.5090   -2.4320    1.0310 o         1 MOL     -0.487518
     73 C24        -1.8330   -5.5900    0.1670 c3        1 MOL      0.638351
     74 C25        -2.6600   -6.8830    0.2250 c3        1 MOL     -0.471866
     75 O14        -2.1110   -5.0380   -1.0980 oh        1 MOL     -0.656770
     76 H29        -3.7790   -3.5350    0.3420 hn        1 MOL      0.092462
     77 H30        -2.3250   -5.3170    2.1860 h1        1 MOL      0.121543
     78 H31        -0.7600   -5.7770    0.2870 h1        1 MOL     -0.052219
     79 H32        -2.5610   -4.1970   -0.9880 ho        1 MOL      0.382358
     80 H33        -2.6530   -7.1740    1.2780 hc        1 MOL      0.102166
     81 H34        -3.7230   -6.7940   -0.0020 hc        1 MOL      0.102166
     82 H35        -2.1860   -7.6480   -0.3880 hc        1 MOL      0.102166
     83 N9         -0.2130   -3.6660    2.2160 n         1 MOL     -0.329517
     84 C26         0.9500   -2.6650    2.1230 c3        1 MOL     -0.055848
     85 C27         1.7620   -2.9590    0.8600 c         1 MOL      0.561883
     86 O15         2.4300   -3.9670    0.8460 o         1 MOL     -0.593319
     87 C28         1.7710   -2.6680    3.4390 c3        1 MOL      0.097922
     88 C29         0.9150   -2.0860    4.6580 c3        1 MOL      0.095684
     89 C30         2.9750   -1.8110    3.2920 c3        1 MOL     -0.128579
     90 C31         1.7100   -1.8250    5.9360 c3        1 MOL     -0.353364
     91 H36         0.0100   -4.4960    2.7530 hn        1 MOL      0.239753
     92 H37         0.5560   -1.6550    2.0730 h1        1 MOL     -0.011554
     93 H38         1.9790   -3.7100    3.6790 hc        1 MOL     -0.004277
     94 H39         0.0640   -2.7670    4.7360 hc        1 MOL     -0.016314
     95 H40         0.4840   -1.1400    4.3400 hc        1 MOL     -0.016314
     96 H41         3.5920   -1.9960    2.4020 hc        1 MOL      0.028002
     97 H42         2.6900   -0.7560    3.2920 hc        1 MOL      0.028002
     98 H43         3.6480   -1.9190    4.1310 hc        1 MOL      0.028002
     99 H44         1.0470   -1.7590    6.8040 hc        1 MOL      0.087208
    100 H45         2.3880   -2.6770    6.0060 hc        1 MOL      0.087208
    101 H46         2.1360   -0.8230    5.8610 hc        1 MOL      0.087208
    102 N10         1.7940   -2.0460   -0.0980 n         1 MOL     -0.190939
    103 C32         2.7100   -1.9510   -1.2010 c3        1 MOL     -0.048060
    104 C33         4.1300   -1.4820   -0.8690 c         1 MOL      0.504647
    105 O16         4.3740   -0.9280    0.2240 o         1 MOL     -0.360844
    106 C34         2.1080   -1.0280   -2.2460 c3        1 MOL     -0.207398
    107 C35         0.6350   -1.1950   -2.4970 c         1 MOL      0.748278
    108 O17        -0.1810   -0.7100   -1.7180 o         1 MOL     -0.675424
    109 O18         0.3090   -1.8480   -3.5450 o         1 MOL     -0.675424
    110 H47         1.0790   -1.3330   -0.0180 hn        1 MOL      0.104893
    111 H48         2.7100   -2.9100   -1.7150 h1        1 MOL      0.077480
    112 H49         2.6930   -1.0740   -3.1730 hc        1 MOL      0.059995
    113 H50         2.2540   -0.0120   -1.8900 hc        1 MOL      0.059995
    114 N11         5.0830   -1.5890   -1.7910 n         1 MOL     -0.691492
    115 C36         6.4850   -1.2730   -1.4060 c3        1 MOL      0.382572
    116 C37         6.8050    0.2060   -0.9940 c         1 MOL      0.374463
    117 O19         7.2150    0.4530    0.1080 o         1 MOL     -0.480985
    118 C38         7.4750   -1.8710   -2.4400 c3        1 MOL     -0.185623
    119 C39         8.9240   -1.7890   -2.0570 ca        1 MOL      0.148715
    120 C40         9.3050   -2.2320   -0.8550 ca        1 MOL     -0.207578
    121 C41         9.8440   -1.0750   -2.8200 ca        1 MOL     -0.207578
    122 C42        10.6130   -2.1360   -0.3640 ca        1 MOL     -0.082469
    123 C43        11.1550   -0.9050   -2.4430 ca        1 MOL     -0.082469
    124 C44        11.5150   -1.4240   -1.1960 ca        1 MOL     -0.120882
    125 H51         4.8870   -2.1350   -2.6190 hn        1 MOL      0.353820
    126 H52         6.6160   -1.8320   -0.4820 h1        1 MOL      0.035094
    127 H53         7.4080   -1.2830   -3.3570 hc        1 MOL      0.047069
    128 H54         7.2140   -2.8830   -2.7460 hc        1 MOL      0.047069
    129 H55         8.6120   -2.7280   -0.1810 ha        1 MOL      0.118826
    130 H56         9.5030   -0.5170   -3.6890 ha        1 MOL      0.118826
    131 H57        10.9660   -2.5490    0.5690 ha        1 MOL      0.111251
    132 H58        11.9040   -0.4030   -3.0360 ha        1 MOL      0.111251
    133 H59        12.5400   -1.2510   -0.8930 ha        1 MOL      0.086623
    134 N12         6.2590    1.1940   -1.7790 n         1 MOL     -0.172741
    135 C45         6.2240    2.5940   -1.4190 c3        1 MOL      0.075506
    136 C46         5.5270    2.9000   -0.0860 c         1 MOL      0.304119
    137 O20         5.7840    3.8910    0.5050 o         1 MOL     -0.518527
    138 C47         5.5990    3.3370   -2.6560 c3        1 MOL     -0.121623
    139 C48         5.8760    2.3520   -3.7550 c3        1 MOL      0.055831
    140 C49         5.7500    1.0100   -3.1770 c3        1 MOL     -0.041187
    141 H60         7.2760    2.8610   -1.3370 h1        1 MOL      0.061466
    142 H61         4.5330    3.5700   -2.6300 hc        1 MOL      0.068090
    143 H62         6.1410    4.2710   -2.8010 hc        1 MOL      0.068090
    144 H63         5.2440    2.4810   -4.6310 hc        1 MOL     -0.005577
    145 H64         6.9200    2.3490   -4.0890 hc        1 MOL     -0.005577
    146 H65         4.7020    0.7540   -3.0590 h1        1 MOL      0.053337
    147 H66         6.2560    0.2930   -3.8240 h1        1 MOL      0.053337
    148 N13         4.6190    2.0900    0.4280 n         1 MOL     -0.132395
    149 C50         3.9410    2.2990    1.7100 c3        1 MOL      0.004677
    150 C51         4.6310    1.5770    2.8710 c         1 MOL      0.438174
    151 O21         4.6000    2.0480    4.0110 o         1 MOL     -0.603486
    152 C52         2.5180    1.7960    1.7380 c3        1 MOL     -0.141923
    153 C53         1.5810    2.3170    0.6530 c3        1 MOL     -0.206370
    154 C54         0.2120    1.5930    0.6620 c         1 MOL      0.617747
    155 O22         0.0190    0.4940    1.1930 o         1 MOL     -0.658457
    156 O23        -0.6070    2.0280   -0.1680 o         1 MOL     -0.658457
    157 H67         4.3790    1.2780   -0.1070 hn        1 MOL      0.154879
    158 H68         3.9500    3.3580    1.9730 h1        1 MOL      0.094644
    159 H69         2.1930    2.0550    2.7530 hc        1 MOL      0.112297
    160 H70         2.5630    0.7040    1.6760 hc        1 MOL      0.112297
    161 H71         2.0770    2.1620   -0.3060 hc        1 MOL      0.084879
    162 H72         1.3630    3.3760    0.8090 hc        1 MOL      0.084879
    163 N14         5.3680    0.5920    2.5640 n         1 MOL      0.005346
    164 C55         6.3310   -0.1490    3.3940 c3        1 MOL     -0.177478
    165 H73         7.2440   -0.3220    2.8230 h1        1 MOL      0.067899
    166 H74         6.5650    0.4320    4.2860 h1        1 MOL      0.067899
    167 H75         5.9000   -1.1070    3.6860 h1        1 MOL      0.067899
    168 H76         5.2600    0.1590    1.6580 hn        1 MOL      0.047923
    169 Ca1        -2.1460   -0.1730   -0.1960 Ca        1 MOL      1.704082
    170 O24        -2.2150    0.0820    2.7700 oh        1 MOL     -0.816991
    171 H77        -2.2800    0.2340    3.7080 ho        1 MOL      0.385644
    172 H78        -1.2750    0.0520    2.5930 ho        1 MOL      0.385644
    173 O25        -4.4470   -0.8650    1.1930 oh        1 MOL     -0.816991
    174 H79        -4.1740   -0.9140    2.1020 ho        1 MOL      0.385644
    175 H80        -5.0520   -0.1220    1.1570 ho        1 MOL      0.385644
@<TRIPOS>BOND
     1    1    2 1   
     2    1    4 1   
     3    1    5 1   
     4    1    6 1   
     5    2    3 2   
     6    2    7 1   
     7    7    8 1   
     8    7   15 1   
     9    8    9 1   
    10    8   11 1   
    11    8   16 1   
    12    9   10 2   
    13    9   19 1   
    14   11   12 1   
    15   11   17 1   
    16   11   18 1   
    17   12   13 1   
    18   12   14 1   
    19   19   20 1   
    20   19   24 1   
    21   20   21 1   
    22   20   23 1   
    23   20   25 1   
    24   21   22 2   
    25   21   29 1   
    26   23   26 1   
    27   23   27 1   
    28   23   28 1   
    29   29   30 1   
    30   29   37 1   
    31   30   31 1   
    32   30   33 1   
    33   30   38 1   
    34   31   32 2   
    35   31   41 1   
    36   33   34 1   
    37   33   39 1   
    38   33   40 1   
    39   34   35 1   
    40   34   36 1   
    41   41   42 1   
    42   41   45 1   
    43   42   43 1   
    44   42   46 1   
    45   42   47 1   
    46   43   44 2   
    47   43   48 1   
    48   48   49 1   
    49   48   56 1   
    50   49   50 1   
    51   49   52 1   
    52   49   57 1   
    53   50   51 2   
    54   50   62 1   
    55   52   53 1   
    56   52   58 1   
    57   52   59 1   
    58   53   54 1   
    59   53   55 2   
    60   54   60 1   
    61   54   61 1   
    62   62   63 1   
    63   62   66 1   
    64   63   64 1   
    65   63   67 1   
    66   63   68 1   
    67   64   65 2   
    68   64   69 1   
    69   69   70 1   
    70   69   76 1   
    71   70   71 1   
    72   70   73 1   
    73   70   77 1   
    74   71   72 2   
    75   71   83 1   
    76   73   74 1   
    77   73   75 1   
    78   73   78 1   
    79   74   80 1   
    80   74   81 1   
    81   74   82 1   
    82   75   79 1   
    83   83   84 1   
    84   83   91 1   
    85   84   85 1   
    86   84   87 1   
    87   84   92 1   
    88   85   86 2   
    89   85  102 1   
    90   87   88 1   
    91   87   89 1   
    92   87   93 1   
    93   88   90 1   
    94   88   94 1   
    95   88   95 1   
    96   89   96 1   
    97   89   97 1   
    98   89   98 1   
    99   90   99 1   
   100   90  100 1   
   101   90  101 1   
   102  102  103 1   
   103  102  110 1   
   104  103  104 1   
   105  103  106 1   
   106  103  111 1   
   107  104  105 2   
   108  104  114 1   
   109  106  107 1   
   110  106  112 1   
   111  106  113 1   
   112  107  108 1   
   113  107  109 1   
   114  114  115 1   
   115  114  125 1   
   116  115  116 1   
   117  115  118 1   
   118  115  126 1   
   119  116  117 2   
   120  116  134 1   
   121  118  119 1   
   122  118  127 1   
   123  118  128 1   
   124  119  120 ar  
   125  119  121 ar  
   126  120  122 ar  
   127  120  129 1   
   128  121  123 ar  
   129  121  130 1   
   130  122  124 ar  
   131  122  131 1   
   132  123  124 ar  
   133  123  132 1   
   134  124  133 1   
   135  134  135 1   
   136  134  140 1   
   137  135  136 1   
   138  135  138 1   
   139  135  141 1   
   140  136  137 2   
   141  136  148 1   
   142  138  139 1   
   143  138  142 1   
   144  138  143 1   
   145  139  140 1   
   146  139  144 1   
   147  139  145 1   
   148  140  146 1   
   149  140  147 1   
   150  148  149 1   
   151  148  157 1   
   152  149  150 1   
   153  149  152 1   
   154  149  158 1   
   155  150  151 2   
   156  150  163 1   
   157  152  153 1   
   158  152  159 1   
   159  152  160 1   
   160  153  154 1   
   161  153  161 1   
   162  153  162 1   
   163  154  155 1   
   164  154  156 1   
   165  163  164 1   
   166  163  168 1   
   167  164  165 1   
   168  164  166 1   
   169  164  167 1   
   170  170  171 1   
   171  170  172 1   
   172  173  174 1   
   173  173  175 1   
@<TRIPOS>SUBSTRUCTURE
     1 MOL         1 TEMP              0 ****  ****    0 ROOT
