@<TRIPOS>MOLECULE
MOL
  179   176     1     0     0
SMALL
resp


@<TRIPOS>ATOM
      1 C1          0.8140    3.8560    6.6210 c3        1 MOL     -0.339531
      2 C2          0.9130    3.2830    5.1540 c         1 MOL      0.702374
      3 O1          1.9080    2.6760    4.8060 o         1 MOL     -0.565666
      4 H1          0.5090    4.9020    6.5810 hc        1 MOL      0.088616
      5 H2          0.0780    3.2840    7.1860 hc        1 MOL      0.088616
      6 H3          1.7870    3.7800    7.1070 hc        1 MOL      0.088616
      7 N1         -0.1360    3.4620    4.3240 n         1 MOL     -0.555963
      8 C3         -0.3070    3.0640    3.0300 c3        1 MOL      0.081152
      9 C4         -0.6250    4.2590    2.0820 c         1 MOL      0.535668
     10 O2         -1.5830    5.0110    2.2270 o         1 MOL     -0.516866
     11 C5         -1.3960    2.0500    3.0350 c3        1 MOL     -0.143534
     12 C6         -1.6090    1.3980    1.6980 c         1 MOL      0.742284
     13 O3         -1.2890    1.9100    0.5890 o         1 MOL     -0.757755
     14 O4         -2.2140    0.3440    1.6220 o         1 MOL     -0.757755
     15 H4         -1.0020    3.7160    4.7780 hn        1 MOL      0.294919
     16 H5          0.6080    2.5820    2.6910 h1        1 MOL      0.045176
     17 H6         -2.3580    2.4860    3.3380 hc        1 MOL      0.045918
     18 H7         -1.0370    1.3080    3.7440 hc        1 MOL      0.045918
     19 N2          0.2010    4.3520    0.9990 n         1 MOL     -0.410728
     20 C7          0.1040    5.4150   -0.0540 c3        1 MOL     -0.058621
     21 C8         -1.3320    5.6940   -0.6020 c         1 MOL      0.574816
     22 O5         -1.6610    6.8070   -0.9330 o         1 MOL     -0.564067
     23 C9          1.0130    5.1450   -1.3110 c3        1 MOL     -0.263737
     24 C10         2.5160    5.2110   -1.0310 c3        1 MOL      0.237765
     25 C11         3.3000    4.7290   -2.2520 c3        1 MOL     -0.085791
     26 C12         3.5290    5.9460   -3.2120 c3        1 MOL      0.087184
     27 N3          4.2110    5.5280   -4.4640 n4        1 MOL     -0.320130
     28 H8          0.9330    3.6700    0.8720 hn        1 MOL      0.296976
     29 H9          0.4780    6.3330    0.4020 h1        1 MOL      0.089925
     30 H10         0.8420    5.8310   -2.1400 hc        1 MOL      0.100936
     31 H11         0.7780    4.1460   -1.6710 hc        1 MOL      0.100936
     32 H12         2.8000    4.6750   -0.1250 hc        1 MOL     -0.016631
     33 H13         2.7800    6.2630   -0.8900 hc        1 MOL     -0.016631
     34 H14         2.7880    4.0110   -2.8880 hc        1 MOL      0.044116
     35 H15         4.2410    4.4040   -1.7950 hc        1 MOL      0.044116
     36 H16         4.0400    6.7190   -2.6530 hx        1 MOL      0.055645
     37 H17         2.5280    6.3280   -3.4500 hx        1 MOL      0.055645
     38 H18         3.5820    5.4240   -5.2430 hn        1 MOL      0.316812
     39 H19         4.8980    6.1910   -4.7980 hn        1 MOL      0.316812
     40 H20         4.7410    4.6830   -4.3100 hn        1 MOL      0.316812
     41 N4         -2.1590    4.6270   -0.7920 n         1 MOL     -0.347959
     42 C13        -3.4760    4.7390   -1.4720 c3        1 MOL      0.159726
     43 C14        -4.6450    4.2950   -0.6560 c         1 MOL      0.330217
     44 O6         -5.7820    4.6890   -0.8130 o         1 MOL     -0.504962
     45 C15        -3.5270    4.0380   -2.8160 c3        1 MOL     -0.437206
     46 C16        -3.1900    2.5140   -2.8190 c         1 MOL      0.778065
     47 O7         -3.1230    1.8990   -1.7350 o         1 MOL     -0.688081
     48 O8         -2.7150    2.0930   -3.9430 o         1 MOL     -0.688081
     49 H21        -1.9100    3.7090   -0.4490 hn        1 MOL      0.229643
     50 H22        -3.6320    5.8040   -1.6400 h1        1 MOL      0.096383
     51 H23        -2.7150    4.5260   -3.3620 hc        1 MOL      0.108279
     52 H24        -4.5170    4.2180   -3.2400 hc        1 MOL      0.108279
     53 N5         -4.3280    3.5080    0.3890 n         1 MOL     -0.069373
     54 C17        -5.3200    2.9830    1.3170 c3        1 MOL     -0.333432
     55 C18        -6.1690    1.9020    0.8210 c         1 MOL      0.607488
     56 O9         -7.2600    1.7430    1.4020 o         1 MOL     -0.590869
     57 H25        -3.3380    3.2970    0.4900 hn        1 MOL      0.129664
     58 H26        -5.9390    3.7980    1.6860 h1        1 MOL      0.143065
     59 H27        -4.8050    2.4940    2.1500 h1        1 MOL      0.143065
     60 N6         -5.8490    1.1770   -0.2630 n         1 MOL     -0.256223
     61 C19        -6.6480    0.1400   -0.8740 c3        1 MOL     -0.077077
     62 C20        -6.9300   -1.0940    0.0660 c         1 MOL      0.456713
     63 O10        -7.9410   -1.7800   -0.2050 o         1 MOL     -0.551988
     64 C21        -5.9760   -0.2070   -2.1790 c3        1 MOL     -0.108268
     65 C22        -4.8830   -1.2220   -1.9740 c         1 MOL      0.613717
     66 N7         -4.9470   -2.3320   -2.7530 n         1 MOL     -0.806026
     67 O11        -4.0290   -1.0130   -1.0930 o         1 MOL     -0.736703
     68 H28        -4.8810    1.2080   -0.5330 hn        1 MOL      0.243599
     69 H29        -7.6520    0.5150   -1.0820 h1        1 MOL      0.128142
     70 H30        -5.6200    0.7020   -2.6450 hc        1 MOL      0.066061
     71 H31        -6.7480   -0.5710   -2.8550 hc        1 MOL      0.066061
     72 H32        -5.7000   -2.5590   -3.3780 hn        1 MOL      0.393999
     73 H33        -4.2340   -3.0190   -2.5250 hn        1 MOL      0.393999
     74 N8         -6.2680   -1.3230    1.1680 n         1 MOL     -0.141047
     75 C23        -6.4850   -2.4160    2.0720 c3        1 MOL     -0.268149
     76 C24        -5.2310   -3.2400    2.3710 c         1 MOL      0.599812
     77 O12        -5.2570   -4.1370    3.1830 o         1 MOL     -0.561620
     78 H34        -5.5050   -0.7470    1.5000 hn        1 MOL      0.214537
     79 H35        -7.2780   -3.1100    1.7860 h1        1 MOL      0.133905
     80 H36        -6.7220   -1.9750    3.0420 h1        1 MOL      0.133905
     81 N9         -4.1340   -2.9450    1.6710 n         1 MOL     -0.453508
     82 C25        -2.9290   -3.7160    1.9140 c3        1 MOL      0.009241
     83 C26        -1.5800   -2.9200    1.6220 c         1 MOL      0.528659
     84 O13        -1.5450   -2.1070    0.7050 o         1 MOL     -0.530582
     85 C27        -2.9410   -5.1020    1.1050 c3        1 MOL     -0.228126
     86 C28        -3.1150   -5.1060   -0.4300 ca        1 MOL      0.149636
     87 C29        -1.9830   -4.8700   -1.2810 ca        1 MOL     -0.199683
     88 C30        -4.3170   -5.5080   -1.0630 ca        1 MOL     -0.199683
     89 C31        -2.1500   -5.0520   -2.6490 ca        1 MOL     -0.249233
     90 C32        -4.5260   -5.5860   -2.4430 ca        1 MOL     -0.249233
     91 C33        -3.3650   -5.4090   -3.2290 ca        1 MOL      0.332302
     92 O14        -3.3330   -5.5530   -4.5870 oh        1 MOL     -0.520823
     93 H37        -4.2480   -2.2670    0.9330 hn        1 MOL      0.339952
     94 H38        -2.8110   -4.0560    2.9400 h1        1 MOL      0.107393
     95 H39        -3.8460   -5.5630    1.4960 hc        1 MOL      0.097896
     96 H40        -2.0690   -5.7170    1.3290 hc        1 MOL      0.097896
     97 H41        -0.9830   -4.6250   -0.9330 ha        1 MOL      0.157368
     98 H42        -5.1910   -5.6290   -0.4390 ha        1 MOL      0.157368
     99 H43        -1.2690   -4.9020   -3.2520 ha        1 MOL      0.157694
    100 H44        -5.4560   -5.8020   -2.9380 ha        1 MOL      0.157694
    101 H45        -2.5060   -5.2500   -4.9470 ho        1 MOL      0.361980
    102 N10        -0.5230   -3.2290    2.3550 n         1 MOL     -0.329214
    103 C34         0.7940   -2.7720    1.9950 c3        1 MOL     -0.156789
    104 C35         1.6000   -3.7890    1.1080 c         1 MOL      0.473644
    105 O15         1.4680   -5.0260    1.2620 o         1 MOL     -0.543248
    106 C36         1.6230   -2.3310    3.2010 c3        1 MOL      0.199404
    107 C37         1.8780   -3.4030    4.2560 c3        1 MOL     -0.036062
    108 C38         0.9560   -1.0130    3.7500 c3        1 MOL     -0.506638
    109 C39         2.8490   -3.0560    5.4290 c3        1 MOL     -0.146651
    110 H46        -0.7150   -3.9230    3.0640 hn        1 MOL      0.233105
    111 H47         0.7140   -1.8880    1.3430 h1        1 MOL      0.085904
    112 H48         2.6100   -2.0250    2.8350 hc        1 MOL     -0.044597
    113 H49         2.2300   -4.2940    3.7360 hc        1 MOL      0.038557
    114 H50         0.9180   -3.4990    4.7660 hc        1 MOL      0.038557
    115 H51         0.0710   -1.3170    4.3070 hc        1 MOL      0.149711
    116 H52         1.6640   -0.4040    4.3070 hc        1 MOL      0.149711
    117 H53         0.5840   -0.3550    2.9550 hc        1 MOL      0.149711
    118 H54         2.4280   -2.2140    5.9960 hc        1 MOL      0.040743
    119 H55         2.7600   -3.9150    6.0880 hc        1 MOL      0.040743
    120 H56         3.8700   -2.8890    5.0970 hc        1 MOL      0.040743
    121 N11         2.4240   -3.2110    0.2460 n         1 MOL     -0.232562
    122 C40         3.5090   -3.8040   -0.5260 c3        1 MOL      0.010007
    123 C41         4.8560   -3.1210   -0.1240 c         1 MOL      0.412790
    124 O16         4.8780   -2.1610    0.6290 o         1 MOL     -0.425930
    125 C42         3.1840   -3.6030   -2.0440 c3        1 MOL     -0.165912
    126 O17         3.0230   -2.2600   -2.4480 oh        1 MOL     -0.487520
    127 H57         2.3830   -2.2060    0.2150 hn        1 MOL      0.390769
    128 H58         3.5930   -4.8510   -0.2450 h1        1 MOL      0.089693
    129 H59         2.2320   -4.0830   -2.2340 h1        1 MOL      0.087217
    130 H60         3.9870   -4.0090   -2.6700 h1        1 MOL      0.087217
    131 H61         3.1360   -2.1780   -3.3970 ho        1 MOL      0.408017
    132 N12         5.9630   -3.6700   -0.6120 n         1 MOL     -0.391408
    133 C43         7.3040   -3.3480   -0.1260 c3        1 MOL      0.268803
    134 C44         7.7450   -1.9260   -0.4850 c         1 MOL      0.429857
    135 O18         8.2010   -1.2210    0.3820 o         1 MOL     -0.487633
    136 C45         8.2810   -4.3490   -0.6390 c3        1 MOL     -0.505647
    137 H62         5.8320   -4.4570   -1.2350 hn        1 MOL      0.262979
    138 H63         7.2770   -3.4670    0.9590 h1        1 MOL      0.062368
    139 H64         7.9260   -4.8900   -1.5190 hc        1 MOL      0.140662
    140 H65         9.2010   -3.7840   -0.8290 hc        1 MOL      0.140662
    141 H66         8.3030   -5.1390    0.1040 hc        1 MOL      0.140662
    142 N13         7.6460   -1.5500   -1.7210 n         1 MOL     -0.303548
    143 C46         7.8010   -0.1500   -2.0830 c3        1 MOL      0.134241
    144 C47         6.9610    0.8350   -1.3270 c         1 MOL      0.350199
    145 O19         7.3680    1.9250   -1.0440 o         1 MOL     -0.480928
    146 C48         7.4830    0.0790   -3.5800 c3        1 MOL     -0.370013
    147 H67         7.4020   -2.2090   -2.4500 hn        1 MOL      0.213741
    148 H68         8.8560    0.0470   -1.8600 h1        1 MOL      0.074166
    149 H69         8.1440   -0.6040   -4.1030 hc        1 MOL      0.106462
    150 H70         6.4200   -0.1050   -3.7000 hc        1 MOL      0.106462
    151 H71         7.7740    1.0650   -3.9330 hc        1 MOL      0.106462
    152 N14         5.7500    0.4310   -0.9270 n         1 MOL     -0.155980
    153 C49         4.9050    1.3580   -0.1580 c3        1 MOL     -0.100389
    154 C50         5.3930    1.5730    1.2580 c         1 MOL      0.404909
    155 O20         5.5560    2.7040    1.7910 o         1 MOL     -0.526082
    156 C51         3.4600    0.8120   -0.1800 c3        1 MOL     -0.098359
    157 C52         2.7860    0.9330   -1.5700 c3        1 MOL      0.030296
    158 C53         1.3620    0.4340   -1.3870 c         1 MOL      0.656031
    159 O21         0.4240    0.9530   -2.1200 o         1 MOL     -0.746066
    160 O22         1.0280   -0.4460   -0.5370 o         1 MOL     -0.746066
    161 H72         5.4710   -0.5370   -0.9910 hn        1 MOL      0.137368
    162 H73         4.9100    2.3260   -0.6570 h1        1 MOL      0.094111
    163 H74         2.9110    1.4040    0.5520 hc        1 MOL      0.055021
    164 H75         3.3860   -0.2380    0.1200 hc        1 MOL      0.055021
    165 H76         3.3040    0.3290   -2.3190 hc        1 MOL     -0.052620
    166 H77         2.6980    1.9960   -1.8000 hc        1 MOL     -0.052620
    167 N15         5.8880    0.4680    1.8130 n         1 MOL     -0.061169
    168 C54         6.5640    0.3490    3.1380 c3        1 MOL     -0.160476
    169 H78         6.9880    1.3140    3.4170 h1        1 MOL      0.081700
    170 H79         5.8390    0.0390    3.8900 h1        1 MOL      0.081700
    171 H80         7.3620   -0.3910    3.0740 h1        1 MOL      0.081700
    172 H81         5.8650   -0.4190    1.3270 hn        1 MOL      0.114647
    173 Ca1        -1.5150   -0.0810   -0.9890 Ca        1 MOL      1.817256
    174 O23         0.1760   -2.4660   -2.3190 oh        1 MOL     -0.821689
    175 H82         0.8930   -2.1390   -1.7780 ho        1 MOL      0.380991
    176 H83         0.5970   -2.7810   -3.1150 ho        1 MOL      0.380991
    177 O24        -2.3050   -0.4290   -3.5770 oh        1 MOL     -0.821689
    178 H84        -2.7190    0.3540   -3.9380 ho        1 MOL      0.380991
    179 H85        -2.3540   -1.0730   -4.2810 ho        1 MOL      0.380991
@<TRIPOS>BOND
     1    1    2 1   
     2    1    4 1   
     3    1    5 1   
     4    1    6 1   
     5    2    3 2   
     6    2    7 1   
     7    7    8 1   
     8    7   15 1   
     9    8    9 1   
    10    8   11 1   
    11    8   16 1   
    12    9   10 2   
    13    9   19 1   
    14   11   12 1   
    15   11   17 1   
    16   11   18 1   
    17   12   13 1   
    18   12   14 1   
    19   19   20 1   
    20   19   28 1   
    21   20   21 1   
    22   20   23 1   
    23   20   29 1   
    24   21   22 2   
    25   21   41 1   
    26   23   24 1   
    27   23   30 1   
    28   23   31 1   
    29   24   25 1   
    30   24   32 1   
    31   24   33 1   
    32   25   26 1   
    33   25   34 1   
    34   25   35 1   
    35   26   27 1   
    36   26   36 1   
    37   26   37 1   
    38   27   38 1   
    39   27   39 1   
    40   27   40 1   
    41   41   42 1   
    42   41   49 1   
    43   42   43 1   
    44   42   45 1   
    45   42   50 1   
    46   43   44 2   
    47   43   53 1   
    48   45   46 1   
    49   45   51 1   
    50   45   52 1   
    51   46   47 1   
    52   46   48 1   
    53   53   54 1   
    54   53   57 1   
    55   54   55 1   
    56   54   58 1   
    57   54   59 1   
    58   55   56 2   
    59   55   60 1   
    60   60   61 1   
    61   60   68 1   
    62   61   62 1   
    63   61   64 1   
    64   61   69 1   
    65   62   63 2   
    66   62   74 1   
    67   64   65 1   
    68   64   70 1   
    69   64   71 1   
    70   65   66 1   
    71   65   67 2   
    72   66   72 1   
    73   66   73 1   
    74   74   75 1   
    75   74   78 1   
    76   75   76 1   
    77   75   79 1   
    78   75   80 1   
    79   76   77 2   
    80   76   81 1   
    81   81   82 1   
    82   81   93 1   
    83   82   83 1   
    84   82   85 1   
    85   82   94 1   
    86   83   84 2   
    87   83  102 1   
    88   85   86 1   
    89   85   95 1   
    90   85   96 1   
    91   86   87 ar  
    92   86   88 ar  
    93   87   89 ar  
    94   87   97 1   
    95   88   90 ar  
    96   88   98 1   
    97   89   91 ar  
    98   89   99 1   
    99   90   91 ar  
   100   90  100 1   
   101   91   92 1   
   102   92  101 1   
   103  102  103 1   
   104  102  110 1   
   105  103  104 1   
   106  103  106 1   
   107  103  111 1   
   108  104  105 2   
   109  104  121 1   
   110  106  107 1   
   111  106  108 1   
   112  106  112 1   
   113  107  109 1   
   114  107  113 1   
   115  107  114 1   
   116  108  115 1   
   117  108  116 1   
   118  108  117 1   
   119  109  118 1   
   120  109  119 1   
   121  109  120 1   
   122  121  122 1   
   123  121  127 1   
   124  122  123 1   
   125  122  125 1   
   126  122  128 1   
   127  123  124 2   
   128  123  132 1   
   129  125  126 1   
   130  125  129 1   
   131  125  130 1   
   132  126  131 1   
   133  132  133 1   
   134  132  137 1   
   135  133  134 1   
   136  133  136 1   
   137  133  138 1   
   138  134  135 2   
   139  134  142 1   
   140  136  139 1   
   141  136  140 1   
   142  136  141 1   
   143  142  143 1   
   144  142  147 1   
   145  143  144 1   
   146  143  146 1   
   147  143  148 1   
   148  144  145 2   
   149  144  152 1   
   150  146  149 1   
   151  146  150 1   
   152  146  151 1   
   153  152  153 1   
   154  152  161 1   
   155  153  154 1   
   156  153  156 1   
   157  153  162 1   
   158  154  155 2   
   159  154  167 1   
   160  156  157 1   
   161  156  163 1   
   162  156  164 1   
   163  157  158 1   
   164  157  165 1   
   165  157  166 1   
   166  158  159 1   
   167  158  160 1   
   168  167  168 1   
   169  167  172 1   
   170  168  169 1   
   171  168  170 1   
   172  168  171 1   
   173  174  175 1   
   174  174  176 1   
   175  177  178 1   
   176  177  179 1   
@<TRIPOS>SUBSTRUCTURE
     1 MOL         1 TEMP              0 ****  ****    0 ROOT
