@<TRIPOS>MOLECULE
MOL
  179   176     1     0     0
SMALL
resp


@<TRIPOS>ATOM
      1 C1          2.1380    3.3240    4.0390 c3        1 MOL     -0.337167
      2 C2          1.0790    3.0480    2.8980 c         1 MOL      0.638389
      3 O1          1.4790    3.1190    1.7760 o         1 MOL     -0.538854
      4 H1          3.0910    3.6010    3.5900 hc        1 MOL      0.085134
      5 H2          1.7850    4.1360    4.6730 hc        1 MOL      0.085134
      6 H3          2.2680    2.4230    4.6400 hc        1 MOL      0.085134
      7 N1         -0.2050    2.8250    3.1510 n         1 MOL     -0.733193
      8 C3         -1.3270    2.5680    2.2140 c3        1 MOL      0.247441
      9 C4         -1.9060    3.7540    1.3770 c         1 MOL      0.794929
     10 O2         -3.0910    4.0050    1.3300 o         1 MOL     -0.511602
     11 C5         -2.4540    1.7130    2.8690 c3        1 MOL     -0.085965
     12 C6         -3.4180    1.0920    1.8030 c         1 MOL      0.629081
     13 O3         -4.6680    1.0780    2.0730 o         1 MOL     -0.598868
     14 O4         -2.8060    0.6590    0.8030 o         1 MOL     -0.598868
     15 H4         -0.3660    2.8420    4.1440 hn        1 MOL      0.347522
     16 H5         -0.9620    1.9460    1.3960 h1        1 MOL     -0.089738
     17 H6         -3.0240    2.4680    3.4190 hc        1 MOL     -0.007096
     18 H7         -1.9490    0.9690    3.4870 hc        1 MOL     -0.007096
     19 N2         -1.0390    4.6750    0.9080 n         1 MOL     -0.769673
     20 C7         -1.3310    6.0890    0.5060 c3        1 MOL      0.186543
     21 C8         -2.4360    6.1460   -0.5980 c         1 MOL      0.373617
     22 O5         -3.3770    6.9040   -0.4970 o         1 MOL     -0.506052
     23 C9         -0.0420    6.6860   -0.0770 c3        1 MOL     -0.543913
     24 C10         0.8520    7.0720    1.1390 c3        1 MOL      0.563219
     25 C11         1.9690    7.9300    0.5250 c3        1 MOL     -0.331558
     26 C12         3.2360    7.9520    1.3540 c3        1 MOL      0.086427
     27 N3          3.0980    8.6490    2.6400 n4        1 MOL     -0.408056
     28 H8         -0.0640    4.4200    0.8860 hn        1 MOL      0.401919
     29 H9         -1.6480    6.6790    1.3710 h1        1 MOL      0.060798
     30 H10        -0.3270    7.6100   -0.5850 hc        1 MOL      0.163243
     31 H11         0.3500    5.9360   -0.7540 hc        1 MOL      0.163243
     32 H12         1.2170    6.1430    1.5870 hc        1 MOL     -0.100307
     33 H13         0.3410    7.7230    1.8450 hc        1 MOL     -0.100307
     34 H14         1.5200    8.9000    0.3340 hc        1 MOL      0.104153
     35 H15         2.3070    7.3580   -0.3360 hc        1 MOL      0.104153
     36 H16         4.0070    8.4640    0.7590 hx        1 MOL      0.099358
     37 H17         3.6220    6.9740    1.6110 hx        1 MOL      0.099358
     38 H18         2.5950    8.1390    3.3460 hn        1 MOL      0.333298
     39 H19         4.0510    8.8850    2.8960 hn        1 MOL      0.333298
     40 H20         2.5900    9.5230    2.5520 hn        1 MOL      0.333298
     41 N4         -2.4540    5.1710   -1.5730 n         1 MOL     -0.234852
     42 C13        -3.5230    4.9370   -2.5440 c3        1 MOL     -0.011011
     43 C14        -4.8910    4.5160   -1.8920 c         1 MOL      0.395494
     44 O6         -5.9770    4.7290   -2.4500 o         1 MOL     -0.530207
     45 C15        -3.1800    3.8120   -3.5630 c3        1 MOL     -0.232696
     46 C16        -2.5160    2.4860   -2.9400 c         1 MOL      0.697647
     47 O7         -1.5310    2.5870   -2.2190 o         1 MOL     -0.760035
     48 O8         -3.0940    1.3920   -2.9790 o         1 MOL     -0.760035
     49 H21        -1.5960    4.6540   -1.6850 hn        1 MOL      0.219257
     50 H22        -3.6650    5.8900   -3.0420 h1        1 MOL      0.079571
     51 H23        -2.4370    4.1810   -4.2550 hc        1 MOL      0.084784
     52 H24        -4.1100    3.5590   -4.0760 hc        1 MOL      0.084784
     53 N5         -4.8700    3.7260   -0.7810 n         1 MOL      0.099700
     54 C17        -6.0160    3.1860   -0.1120 c3        1 MOL     -0.079886
     55 C18        -6.4880    1.8550   -0.7480 c         1 MOL      0.629423
     56 O9         -7.4190    1.9270   -1.5480 o         1 MOL     -0.564303
     57 H25        -3.9540    3.6220   -0.3720 hn        1 MOL      0.046777
     58 H26        -6.8170    3.9230   -0.0600 h1        1 MOL      0.032499
     59 H27        -5.7610    3.0030    0.9320 h1        1 MOL      0.032499
     60 N6         -5.8950    0.6890   -0.4850 n         1 MOL     -0.327327
     61 C19        -6.4970   -0.5600   -0.8470 c3        1 MOL      0.124804
     62 C20        -6.4060   -1.6370    0.1960 c         1 MOL      0.423560
     63 O10        -6.9780   -2.6920   -0.0080 o         1 MOL     -0.531721
     64 C21        -6.0930   -1.0650   -2.2220 c3        1 MOL     -0.555585
     65 C22        -4.6950   -1.6850   -2.1310 c         1 MOL      0.756195
     66 N7         -4.5150   -2.7380   -2.7980 n         1 MOL     -0.728357
     67 O11        -3.7290   -1.3100   -1.5150 o         1 MOL     -0.630426
     68 H28        -5.2720    0.6680    0.3140 hn        1 MOL      0.013922
     69 H29        -7.5630   -0.3560   -0.9590 h1        1 MOL      0.080683
     70 H30        -6.0480   -0.2220   -2.9160 hc        1 MOL      0.194312
     71 H31        -6.8230   -1.8250   -2.4820 hc        1 MOL      0.194312
     72 H32        -5.3910   -3.0580   -3.1880 hn        1 MOL      0.342799
     73 H33        -3.5900   -3.1480   -2.8490 hn        1 MOL      0.342799
     74 N8         -5.7450   -1.3180    1.3010 n         1 MOL     -0.241472
     75 C23        -5.6080   -2.3260    2.3370 c3        1 MOL     -0.243532
     76 C24        -4.3930   -3.1650    2.3020 c         1 MOL      0.637118
     77 O12        -4.3300   -3.9680    3.2400 o         1 MOL     -0.583211
     78 H34        -5.2640   -0.4440    1.4100 hn        1 MOL      0.304652
     79 H35        -6.4840   -2.9660    2.2560 h1        1 MOL      0.121864
     80 H36        -5.6030   -1.8280    3.3090 h1        1 MOL      0.121864
     81 N9         -3.4530   -2.9040    1.3940 n         1 MOL     -0.438648
     82 C25        -2.2210   -3.7040    1.1330 c3        1 MOL      0.341866
     83 C26        -0.9380   -2.9040    1.0120 c         1 MOL      0.389633
     84 O13        -0.9170   -1.7580    0.5740 o         1 MOL     -0.681165
     85 C27        -2.4500   -4.6340   -0.1350 c3        1 MOL     -0.026918
     86 C28        -3.5680   -5.6180    0.1010 ca        1 MOL     -0.077190
     87 C29        -4.8730   -5.3610   -0.3960 ca        1 MOL     -0.101389
     88 C30        -3.3130   -6.7330    0.8890 ca        1 MOL     -0.101389
     89 C31        -5.8960   -6.2450   -0.0170 ca        1 MOL     -0.268080
     90 C32        -4.2980   -7.6740    1.1170 ca        1 MOL     -0.268080
     91 C33        -5.5920   -7.3840    0.7180 ca        1 MOL      0.399709
     92 O14        -6.5410   -8.4300    0.8370 oh        1 MOL     -0.565595
     93 H37        -3.6870   -2.1540    0.7560 hn        1 MOL      0.249350
     94 H38        -1.9930   -4.3310    1.9960 h1        1 MOL     -0.008481
     95 H39        -1.4750   -5.0730   -0.3210 hc        1 MOL      0.000543
     96 H40        -2.6970   -3.9810   -0.9630 hc        1 MOL      0.000543
     97 H41        -5.1210   -4.5430   -1.0630 ha        1 MOL      0.120646
     98 H42        -2.2980   -6.8890    1.2110 ha        1 MOL      0.120646
     99 H43        -6.9280   -6.0150   -0.2350 ha        1 MOL      0.154105
    100 H44        -3.9930   -8.6370    1.4970 ha        1 MOL      0.154105
    101 H45        -7.4140   -8.2650    0.4710 ho        1 MOL      0.384940
    102 N10         0.1940   -3.5120    1.3710 n         1 MOL     -0.335074
    103 C34         1.5520   -2.9010    1.3710 c3        1 MOL      0.012745
    104 C35         2.5420   -3.8520    0.6790 c         1 MOL      0.481587
    105 O15         2.7630   -4.9750    1.1290 o         1 MOL     -0.525375
    106 C36         2.0240   -2.7340    2.8290 c3        1 MOL      0.091122
    107 C37         1.0200   -1.9320    3.6770 c3        1 MOL     -0.276736
    108 C38         3.4470   -2.1410    2.9610 c3        1 MOL     -0.045751
    109 C39         0.7370   -0.5600    3.1670 c3        1 MOL      0.283342
    110 H46         0.1500   -4.4780    1.6670 hn        1 MOL      0.258169
    111 H47         1.6110   -1.9450    0.8400 h1        1 MOL      0.134767
    112 H48         2.1130   -3.7610    3.1900 hc        1 MOL      0.015948
    113 H49         1.3640   -1.8530    4.7080 hc        1 MOL      0.049303
    114 H50         0.0800   -2.4650    3.6530 hc        1 MOL      0.049303
    115 H51         3.4050   -1.1960    2.4140 hc        1 MOL     -0.005759
    116 H52         3.7440   -1.7530    3.9330 hc        1 MOL     -0.005759
    117 H53         4.1910   -2.8030    2.5140 hc        1 MOL     -0.005759
    118 H54         0.2760   -0.5660    2.1750 hc        1 MOL     -0.011730
    119 H55         0.0900   -0.1230    3.9330 hc        1 MOL     -0.011730
    120 H56         1.6250    0.0810    3.1780 hc        1 MOL     -0.011730
    121 N11         3.1820   -3.3340   -0.3560 n         1 MOL     -0.554902
    122 C40         4.4410   -3.8580   -0.9230 c3        1 MOL      0.499409
    123 C41         5.7570   -3.2220   -0.3610 c         1 MOL      0.280490
    124 O16         5.7890   -2.1580    0.2840 o         1 MOL     -0.263297
    125 C42         4.4740   -3.8440   -2.4440 c3        1 MOL     -0.221762
    126 O17         4.8190   -2.5310   -2.9740 oh        1 MOL     -0.470796
    127 H57         2.7900   -2.4390   -0.6080 hn        1 MOL      0.319516
    128 H58         4.5110   -4.9050   -0.6680 h1        1 MOL     -0.027255
    129 H59         3.5260   -4.2880   -2.7370 h1        1 MOL      0.100996
    130 H60         5.3150   -4.4980   -2.6930 h1        1 MOL      0.100996
    131 H61         4.9680   -2.5550   -3.9280 ho        1 MOL      0.384165
    132 N12         6.9030   -3.9430   -0.5200 n         1 MOL     -0.488869
    133 C43         8.2510   -3.3780   -0.2530 c3        1 MOL      0.167959
    134 C44         8.4760   -1.9250   -0.7830 c         1 MOL      0.462905
    135 O18         8.9800   -1.0870   -0.0190 o         1 MOL     -0.516624
    136 C45         9.2170   -4.4490   -0.7230 c3        1 MOL     -0.334786
    137 H62         6.8700   -4.7350   -1.1480 hn        1 MOL      0.300829
    138 H63         8.3470   -3.2520    0.8290 h1        1 MOL      0.087364
    139 H64         9.2230   -5.2940   -0.0380 hc        1 MOL      0.094843
    140 H65         9.0660   -4.7750   -1.7510 hc        1 MOL      0.094843
    141 H66        10.2040   -3.9890   -0.7620 hc        1 MOL      0.094843
    142 N13         7.9980   -1.6670   -1.9930 n         1 MOL     -0.382493
    143 C46         7.9360   -0.3330   -2.6040 c3        1 MOL      0.151681
    144 C47         7.1570    0.6680   -1.7540 c         1 MOL      0.341481
    145 O19         7.6170    1.8400   -1.5930 o         1 MOL     -0.532424
    146 C48         7.3440   -0.3390   -4.0070 c3        1 MOL     -0.310223
    147 H67         7.6260   -2.4180   -2.5540 hn        1 MOL      0.252381
    148 H68         8.9670    0.0330   -2.7080 h1        1 MOL      0.079064
    149 H69         7.3540    0.6810   -4.3650 hc        1 MOL      0.082551
    150 H70         7.9890   -1.0260   -4.5630 hc        1 MOL      0.082551
    151 H71         6.3230   -0.7190   -3.9450 hc        1 MOL      0.082551
    152 N14         6.0910    0.2790   -1.0550 n         1 MOL     -0.120617
    153 C49         5.3320    1.1700   -0.1120 c3        1 MOL     -0.203380
    154 C50         6.0330    1.4160    1.2150 c         1 MOL      0.528548
    155 O20         5.9910    2.5200    1.7220 o         1 MOL     -0.572611
    156 C51         3.8270    0.7730    0.0010 c3        1 MOL      0.250890
    157 C52         3.1160    0.5340   -1.3040 c3        1 MOL      0.238859
    158 C53         1.6900    0.1300   -1.1290 c         1 MOL      0.502068
    159 O21         1.3490   -0.9770   -1.5280 o         1 MOL     -0.683822
    160 O22         0.8310    0.8930   -0.6280 o         1 MOL     -0.683822
    161 H72         5.7440   -0.6680   -1.0910 hn        1 MOL      0.171248
    162 H73         5.2110    2.1480   -0.5840 h1        1 MOL      0.114216
    163 H74         3.3460    1.6160    0.4780 hc        1 MOL     -0.068309
    164 H75         3.7500   -0.1350    0.6110 hc        1 MOL     -0.068309
    165 H76         3.6650   -0.2330   -1.8370 hc        1 MOL     -0.116420
    166 H77         3.1940    1.4620   -1.8600 hc        1 MOL     -0.116420
    167 N15         6.7110    0.3920    1.7380 n         1 MOL     -0.043378
    168 C54         7.5680    0.5290    2.9290 c3        1 MOL     -0.388453
    169 H78         8.5510    0.8930    2.6290 h1        1 MOL      0.136215
    170 H79         7.1150    1.2380    3.6240 h1        1 MOL      0.136215
    171 H80         7.6730   -0.4400    3.4160 h1        1 MOL      0.136215
    172 H81         6.5320   -0.5410    1.3860 hn        1 MOL      0.074611
    173 Ca1        -1.3580    0.0470   -1.3990 Ca        1 MOL      1.783372
    174 O23         0.2630    1.0080   -3.6950 oh        1 MOL     -0.768531
    175 H82        -0.0410    1.8830   -3.4600 ho        1 MOL      0.388771
    176 H83         1.1340    1.1500   -4.0770 ho        1 MOL      0.388771
    177 O24        -1.0750   -1.8610   -3.1980 oh        1 MOL     -0.768531
    178 H84        -0.2540   -2.0180   -3.6550 ho        1 MOL      0.388771
    179 H85        -1.4690   -2.7330   -3.1200 ho        1 MOL      0.388771
@<TRIPOS>BOND
     1    1    2 1   
     2    1    4 1   
     3    1    5 1   
     4    1    6 1   
     5    2    3 2   
     6    2    7 1   
     7    7    8 1   
     8    7   15 1   
     9    8    9 1   
    10    8   11 1   
    11    8   16 1   
    12    9   10 2   
    13    9   19 1   
    14   11   12 1   
    15   11   17 1   
    16   11   18 1   
    17   12   13 1   
    18   12   14 1   
    19   19   20 1   
    20   19   28 1   
    21   20   21 1   
    22   20   23 1   
    23   20   29 1   
    24   21   22 2   
    25   21   41 1   
    26   23   24 1   
    27   23   30 1   
    28   23   31 1   
    29   24   25 1   
    30   24   32 1   
    31   24   33 1   
    32   25   26 1   
    33   25   34 1   
    34   25   35 1   
    35   26   27 1   
    36   26   36 1   
    37   26   37 1   
    38   27   38 1   
    39   27   39 1   
    40   27   40 1   
    41   41   42 1   
    42   41   49 1   
    43   42   43 1   
    44   42   45 1   
    45   42   50 1   
    46   43   44 2   
    47   43   53 1   
    48   45   46 1   
    49   45   51 1   
    50   45   52 1   
    51   46   47 1   
    52   46   48 1   
    53   53   54 1   
    54   53   57 1   
    55   54   55 1   
    56   54   58 1   
    57   54   59 1   
    58   55   56 2   
    59   55   60 1   
    60   60   61 1   
    61   60   68 1   
    62   61   62 1   
    63   61   64 1   
    64   61   69 1   
    65   62   63 2   
    66   62   74 1   
    67   64   65 1   
    68   64   70 1   
    69   64   71 1   
    70   65   66 1   
    71   65   67 2   
    72   66   72 1   
    73   66   73 1   
    74   74   75 1   
    75   74   78 1   
    76   75   76 1   
    77   75   79 1   
    78   75   80 1   
    79   76   77 2   
    80   76   81 1   
    81   81   82 1   
    82   81   93 1   
    83   82   83 1   
    84   82   85 1   
    85   82   94 1   
    86   83   84 2   
    87   83  102 1   
    88   85   86 1   
    89   85   95 1   
    90   85   96 1   
    91   86   87 ar  
    92   86   88 ar  
    93   87   89 ar  
    94   87   97 1   
    95   88   90 ar  
    96   88   98 1   
    97   89   91 ar  
    98   89   99 1   
    99   90   91 ar  
   100   90  100 1   
   101   91   92 1   
   102   92  101 1   
   103  102  103 1   
   104  102  110 1   
   105  103  104 1   
   106  103  106 1   
   107  103  111 1   
   108  104  105 2   
   109  104  121 1   
   110  106  107 1   
   111  106  108 1   
   112  106  112 1   
   113  107  109 1   
   114  107  113 1   
   115  107  114 1   
   116  108  115 1   
   117  108  116 1   
   118  108  117 1   
   119  109  118 1   
   120  109  119 1   
   121  109  120 1   
   122  121  122 1   
   123  121  127 1   
   124  122  123 1   
   125  122  125 1   
   126  122  128 1   
   127  123  124 2   
   128  123  132 1   
   129  125  126 1   
   130  125  129 1   
   131  125  130 1   
   132  126  131 1   
   133  132  133 1   
   134  132  137 1   
   135  133  134 1   
   136  133  136 1   
   137  133  138 1   
   138  134  135 2   
   139  134  142 1   
   140  136  139 1   
   141  136  140 1   
   142  136  141 1   
   143  142  143 1   
   144  142  147 1   
   145  143  144 1   
   146  143  146 1   
   147  143  148 1   
   148  144  145 2   
   149  144  152 1   
   150  146  149 1   
   151  146  150 1   
   152  146  151 1   
   153  152  153 1   
   154  152  161 1   
   155  153  154 1   
   156  153  156 1   
   157  153  162 1   
   158  154  155 2   
   159  154  167 1   
   160  156  157 1   
   161  156  163 1   
   162  156  164 1   
   163  157  158 1   
   164  157  165 1   
   165  157  166 1   
   166  158  159 1   
   167  158  160 1   
   168  167  168 1   
   169  167  172 1   
   170  168  169 1   
   171  168  170 1   
   172  168  171 1   
   173  174  175 1   
   174  174  176 1   
   175  177  178 1   
   176  177  179 1   
@<TRIPOS>SUBSTRUCTURE
     1 MOL         1 TEMP              0 ****  ****    0 ROOT
