@<TRIPOS>MOLECULE
MOL
  176   174     1     0     0
SMALL
resp


@<TRIPOS>ATOM
      1 C1          1.6040    4.1640    6.3890 c3        1 MOL     -0.252211
      2 C2          1.6550    3.7310    4.9320 c         1 MOL      0.699447
      3 O1          2.7300    3.2910    4.5030 o         1 MOL     -0.583259
      4 H1          2.5790    4.5470    6.6880 hc        1 MOL      0.060108
      5 H2          0.8530    4.9460    6.5100 hc        1 MOL      0.060108
      6 H3          1.3430    3.3100    7.0130 hc        1 MOL      0.060108
      7 N1          0.5460    3.7610    4.2830 n         1 MOL     -0.589062
      8 C3          0.3920    3.2570    2.8990 c3        1 MOL      0.228390
      9 C4         -0.2940    4.3410    2.0400 c         1 MOL      0.566085
     10 O2         -1.0590    5.1750    2.5160 o         1 MOL     -0.544152
     11 C5         -0.4330    1.9410    2.9550 c3        1 MOL     -0.485966
     12 C6         -0.7550    1.2840    1.6020 c         1 MOL      0.910090
     13 O3         -1.5490    0.3450    1.5920 o         1 MOL     -0.773559
     14 O4         -0.3150    1.7410    0.4960 o         1 MOL     -0.773559
     15 H4         -0.3090    4.0850    4.7150 hn        1 MOL      0.320377
     16 H5          1.3520    3.0360    2.4290 h1        1 MOL     -0.004153
     17 H6         -1.3630    2.3230    3.3760 hc        1 MOL      0.139265
     18 H7          0.0540    1.2800    3.6680 hc        1 MOL      0.139265
     19 N2          0.1140    4.3810    0.7690 n         1 MOL     -0.415137
     20 C7         -0.0620    5.4020   -0.2330 c3        1 MOL     -0.058640
     21 C8         -1.4390    5.6210   -0.8050 c         1 MOL      0.533857
     22 O5         -1.7450    6.8120   -1.1490 o         1 MOL     -0.572933
     23 C9          0.9300    5.0230   -1.4020 c3        1 MOL     -0.062352
     24 C10         2.4300    5.2290   -1.1240 c3        1 MOL     -0.099955
     25 C11         3.3100    4.9010   -2.3220 c3        1 MOL      0.011391
     26 C12         3.1090    5.6220   -3.6860 c3        1 MOL      0.003116
     27 N3          3.9860    4.9740   -4.7320 n4        1 MOL     -0.466040
     28 H8          0.2850    3.4600    0.3970 hn        1 MOL      0.258175
     29 H9          0.1910    6.3940    0.1430 h1        1 MOL      0.116759
     30 H10         0.7250    5.6810   -2.2400 hc        1 MOL      0.044219
     31 H11         0.6840    4.0280   -1.7850 hc        1 MOL      0.044219
     32 H12         2.8290    4.6270   -0.3040 hc        1 MOL      0.070232
     33 H13         2.5290    6.2770   -0.8340 hc        1 MOL      0.070232
     34 H14         3.1850    3.8380   -2.5270 hc        1 MOL      0.039349
     35 H15         4.3530    4.9890   -2.0130 hc        1 MOL      0.039349
     36 H16         3.3550    6.6730   -3.5360 hx        1 MOL      0.094617
     37 H17         2.0740    5.4170   -3.9450 hx        1 MOL      0.094617
     38 H18         3.6780    4.0300   -4.8910 hn        1 MOL      0.361247
     39 H19         4.0070    5.5090   -5.5870 hn        1 MOL      0.361247
     40 H20         4.9520    5.0710   -4.4570 hn        1 MOL      0.361247
     41 N4         -2.2830    4.6210   -0.8920 n         1 MOL     -0.350564
     42 C13        -3.5070    4.6200   -1.7240 c3        1 MOL      0.070635
     43 C14        -4.8380    4.3160   -1.0030 c         1 MOL      0.400798
     44 O6         -5.9260    4.5600   -1.5010 o         1 MOL     -0.484049
     45 C15        -3.3790    3.5600   -2.8330 c3        1 MOL     -0.230398
     46 C16        -2.9630    2.1550   -2.3550 c         1 MOL      0.755348
     47 O7         -2.2880    1.3650   -3.0700 o         1 MOL     -0.755491
     48 O8         -3.2040    1.8060   -1.1830 o         1 MOL     -0.755491
     49 H21        -2.0860    3.7360   -0.4500 hn        1 MOL      0.221070
     50 H22        -3.6240    5.6260   -2.1200 h1        1 MOL      0.106373
     51 H23        -2.5580    3.9510   -3.4400 hc        1 MOL      0.068572
     52 H24        -4.2300    3.4800   -3.5050 hc        1 MOL      0.068572
     53 N5         -4.8010    3.6980    0.2420 n         1 MOL     -0.288854
     54 C17        -5.9710    3.3080    0.9400 c3        1 MOL     -0.249436
     55 C18        -6.6650    2.0430    0.5390 c         1 MOL      0.424885
     56 O9         -7.8800    2.0120    0.7850 o         1 MOL     -0.553272
     57 H25        -3.8940    3.5800    0.6540 hn        1 MOL      0.252394
     58 H26        -6.6580    4.1200    0.7100 h1        1 MOL      0.138403
     59 H27        -5.8340    3.2050    2.0160 h1        1 MOL      0.138403
     60 N6         -6.0520    1.1720   -0.2560 n         1 MOL      0.039620
     61 C19        -6.7610   -0.0890   -0.6140 c3        1 MOL     -0.323208
     62 C20        -6.6000   -1.2710    0.4060 c         1 MOL      0.485036
     63 O10        -7.0960   -2.3670    0.1420 o         1 MOL     -0.450222
     64 C21        -6.2580   -0.4260   -2.0670 c3        1 MOL     -0.198441
     65 C22        -4.8110   -0.8210   -2.1920 c         1 MOL      0.732198
     66 N7         -4.4090   -1.3010   -3.3050 n         1 MOL     -0.606937
     67 O11        -4.0540   -0.7660   -1.2900 o         1 MOL     -0.573892
     68 H28        -5.0610    1.2150   -0.4140 hn        1 MOL      0.137955
     69 H29        -7.8190    0.1330   -0.7220 h1        1 MOL      0.197982
     70 H30        -6.4520    0.4050   -2.7580 hc        1 MOL      0.088519
     71 H31        -6.8110   -1.2710   -2.4780 hc        1 MOL      0.088519
     72 H32        -5.1000   -1.4140   -4.0430 hn        1 MOL      0.276787
     73 H33        -3.5020   -1.6790   -3.5300 hn        1 MOL      0.276787
     74 N8         -5.9580   -1.1730    1.5730 n         1 MOL     -0.320795
     75 C23        -6.0440   -2.2580    2.6190 c3        1 MOL     -0.229515
     76 C24        -4.9510   -3.2910    2.6560 c         1 MOL      0.657808
     77 O12        -5.1050   -4.1790    3.4240 o         1 MOL     -0.576122
     78 H34        -5.1990   -0.5310    1.7540 hn        1 MOL      0.243714
     79 H35        -7.0020   -2.7490    2.4700 h1        1 MOL      0.124994
     80 H36        -6.0180   -1.6920    3.5570 h1        1 MOL      0.124994
     81 N9         -3.9160   -3.1070    1.9000 n         1 MOL     -0.359505
     82 C25        -2.7780   -4.0170    1.9180 c3        1 MOL     -0.000924
     83 C26        -1.5770   -3.2100    1.3850 c         1 MOL      0.590238
     84 O13        -1.7490   -2.3260    0.4690 o         1 MOL     -0.739548
     85 C27        -3.0040   -5.2760    1.1110 c3        1 MOL      0.012159
     86 C28        -3.4290   -5.1670   -0.2860 ca        1 MOL      0.086767
     87 C29        -2.5400   -5.3610   -1.4090 ca        1 MOL     -0.215567
     88 C30        -4.7250   -4.8420   -0.5390 ca        1 MOL     -0.215567
     89 C31        -3.1090   -5.4020   -2.6960 ca        1 MOL     -0.108602
     90 C32        -5.2150   -4.6680   -1.8250 ca        1 MOL     -0.108602
     91 C33        -4.4570   -5.1180   -2.9500 ca        1 MOL      0.177978
     92 O14        -5.0550   -5.0310   -4.1800 oh        1 MOL     -0.415711
     93 H37        -3.9020   -2.3820    1.1940 hn        1 MOL      0.298127
     94 H38        -2.5990   -4.2180    2.9800 h1        1 MOL      0.061660
     95 H39        -3.6980   -5.8660    1.7170 hc        1 MOL      0.033615
     96 H40        -2.1460   -5.9510    1.0870 hc        1 MOL      0.033615
     97 H41        -1.5380   -5.7340   -1.2380 ha        1 MOL      0.130254
     98 H42        -5.3430   -4.6410    0.3270 ha        1 MOL      0.130254
     99 H43        -2.4120   -5.6060   -3.4990 ha        1 MOL      0.081725
    100 H44        -6.1120   -4.1340   -2.0920 ha        1 MOL      0.081725
    101 H45        -4.3960   -5.2980   -4.8120 ho        1 MOL      0.337911
    102 N10        -0.4280   -3.4720    1.9510 n         1 MOL     -0.402107
    103 C34         0.8490   -2.7370    1.8190 c3        1 MOL     -0.005764
    104 C35         1.8050   -3.5130    0.9680 c         1 MOL      0.623944
    105 O15         2.1990   -4.6410    1.3060 o         1 MOL     -0.581600
    106 C36         1.3570   -2.4900    3.3130 c3        1 MOL      0.161381
    107 C37         0.2630   -1.9330    4.1810 c3        1 MOL      0.038239
    108 C38         2.4440   -1.4190    3.2460 c3        1 MOL     -0.105690
    109 C39         0.6090   -1.9720    5.6900 c3        1 MOL     -0.069630
    110 H46        -0.4150   -4.2680    2.5700 hn        1 MOL      0.250129
    111 H47         0.7200   -1.8170    1.2480 h1        1 MOL      0.099226
    112 H48         1.7840   -3.4200    3.6740 hc        1 MOL     -0.016402
    113 H49        -0.7160   -2.3950    4.0410 hc        1 MOL     -0.007473
    114 H50         0.1470   -0.8860    3.9430 hc        1 MOL     -0.007473
    115 H51         2.7740   -1.2920    4.2770 hc        1 MOL      0.016630
    116 H52         3.2800   -1.7710    2.6470 hc        1 MOL      0.016630
    117 H53         2.0870   -0.5400    2.7120 hc        1 MOL      0.016630
    118 H54         0.2370   -1.1040    6.2460 hc        1 MOL      0.018878
    119 H55         0.1280   -2.8680    6.0900 hc        1 MOL      0.018878
    120 H56         1.6700   -2.1850    5.7960 hc        1 MOL      0.018878
    121 N11         2.2970   -3.0800   -0.2230 n         1 MOL     -0.491302
    122 C40         3.5270   -3.6730   -0.9000 c3        1 MOL      0.141053
    123 C41         4.8850   -3.3490   -0.2130 c         1 MOL      0.384953
    124 O16         5.0270   -2.4510    0.5570 o         1 MOL     -0.304428
    125 C42         3.5880   -3.1970   -2.3190 c3        1 MOL     -0.474276
    126 O17         3.9300   -1.8070   -2.4470 oh        1 MOL     -0.277145
    127 H57         1.9980   -2.1630   -0.5140 hn        1 MOL      0.214678
    128 H58         3.4260   -4.7520   -0.7810 h1        1 MOL      0.089236
    129 H59         2.5580   -3.2900   -2.6720 h1        1 MOL      0.190098
    130 H60         4.1830   -3.8000   -2.9960 h1        1 MOL      0.190098
    131 H61         3.3810   -1.5320   -3.1940 ho        1 MOL      0.363138
    132 N12         5.9610   -4.1260   -0.5520 n         1 MOL     -0.449641
    133 C43         7.3410   -3.7470   -0.1640 c3        1 MOL      0.187558
    134 C44         7.6960   -2.3040   -0.6130 c         1 MOL      0.474772
    135 O18         8.6130   -1.6990   -0.0600 o         1 MOL     -0.526054
    136 C45         8.2060   -4.8140   -0.9160 c3        1 MOL     -0.283684
    137 H62         5.7670   -4.9650   -1.0640 hn        1 MOL      0.280862
    138 H63         7.5080   -3.8470    0.9090 h1        1 MOL      0.056756
    139 H64         7.7020   -5.7860   -0.9560 hc        1 MOL      0.085539
    140 H65         8.4280   -4.3540   -1.8810 hc        1 MOL      0.085539
    141 H66         9.1570   -4.8640   -0.4070 hc        1 MOL      0.085539
    142 N13         7.0530   -1.7910   -1.6680 n         1 MOL     -0.291579
    143 C46         7.3070   -0.4730   -2.2410 c3        1 MOL      0.231584
    144 C47         6.6700    0.6700   -1.4390 c         1 MOL      0.234772
    145 O19         7.3410    1.6770   -1.1110 o         1 MOL     -0.474962
    146 C48         6.8930   -0.4730   -3.6780 c3        1 MOL     -0.108970
    147 H67         6.2380   -2.2980   -1.9960 hn        1 MOL      0.167868
    148 H68         8.3860   -0.3310   -2.3040 h1        1 MOL      0.050206
    149 H69         7.3860    0.2830   -4.2770 hc        1 MOL      0.010689
    150 H70         7.1490   -1.4610   -4.0670 hc        1 MOL      0.010689
    151 H71         5.8210   -0.3020   -3.6270 hc        1 MOL      0.010689
    152 N14         5.3830    0.4830   -1.0850 n         1 MOL     -0.066778
    153 C49         4.7200    1.3350   -0.0790 c3        1 MOL     -0.116005
    154 C50         5.4040    1.3390    1.2920 c         1 MOL      0.399356
    155 O20         5.6120    2.3300    1.9910 o         1 MOL     -0.494558
    156 C51         3.2300    0.8390    0.0430 c3        1 MOL     -0.084692
    157 C52         2.4710    1.3210   -1.2400 c3        1 MOL     -0.304283
    158 C53         1.3740    0.3530   -1.5550 c         1 MOL      0.786965
    159 O21         0.5390    0.6150   -2.4070 o         1 MOL     -0.714590
    160 O22         1.1890   -0.6680   -0.8410 o         1 MOL     -0.714590
    161 H72         4.9100   -0.3900   -1.2450 hn        1 MOL      0.031237
    162 H73         4.6180    2.3780   -0.3600 h1        1 MOL      0.081259
    163 H74         2.9070    1.1830    1.0320 hc        1 MOL      0.126206
    164 H75         3.2390   -0.2370    0.1920 hc        1 MOL      0.126206
    165 H76         3.1200    1.5280   -2.0980 hc        1 MOL      0.055129
    166 H77         1.9820    2.2450   -0.9390 hc        1 MOL      0.055129
    167 N15         6.0440    0.2040    1.7060 n         1 MOL     -0.000929
    168 C54         6.8090    0.1810    3.0060 c3        1 MOL     -0.399185
    169 H78         7.7570    0.7020    2.8780 h1        1 MOL      0.143990
    170 H79         6.2240    0.6760    3.7810 h1        1 MOL      0.143990
    171 H80         7.0000   -0.8520    3.2980 h1        1 MOL      0.143990
    172 H81         5.8300   -0.6850    1.2740 hn        1 MOL      0.050927
    173 Ca1        -1.4320   -0.1090   -0.9490 Ca        1 MOL      1.735891
    174 O23        -1.5210   -2.1600   -2.5600 oh        1 MOL     -0.707152
    175 H82        -1.9870   -2.9670   -2.3360 ho        1 MOL      0.351545
    176 H83        -0.7800   -2.4510   -3.0890 ho        1 MOL      0.351545
@<TRIPOS>BOND
     1    1    2 1   
     2    1    4 1   
     3    1    5 1   
     4    1    6 1   
     5    2    3 2   
     6    2    7 1   
     7    7    8 1   
     8    7   15 1   
     9    8    9 1   
    10    8   11 1   
    11    8   16 1   
    12    9   10 2   
    13    9   19 1   
    14   11   12 1   
    15   11   17 1   
    16   11   18 1   
    17   12   13 1   
    18   12   14 1   
    19   19   20 1   
    20   19   28 1   
    21   20   21 1   
    22   20   23 1   
    23   20   29 1   
    24   21   22 2   
    25   21   41 1   
    26   23   24 1   
    27   23   30 1   
    28   23   31 1   
    29   24   25 1   
    30   24   32 1   
    31   24   33 1   
    32   25   26 1   
    33   25   34 1   
    34   25   35 1   
    35   26   27 1   
    36   26   36 1   
    37   26   37 1   
    38   27   38 1   
    39   27   39 1   
    40   27   40 1   
    41   41   42 1   
    42   41   49 1   
    43   42   43 1   
    44   42   45 1   
    45   42   50 1   
    46   43   44 2   
    47   43   53 1   
    48   45   46 1   
    49   45   51 1   
    50   45   52 1   
    51   46   47 1   
    52   46   48 1   
    53   53   54 1   
    54   53   57 1   
    55   54   55 1   
    56   54   58 1   
    57   54   59 1   
    58   55   56 2   
    59   55   60 1   
    60   60   61 1   
    61   60   68 1   
    62   61   62 1   
    63   61   64 1   
    64   61   69 1   
    65   62   63 2   
    66   62   74 1   
    67   64   65 1   
    68   64   70 1   
    69   64   71 1   
    70   65   66 1   
    71   65   67 2   
    72   66   72 1   
    73   66   73 1   
    74   74   75 1   
    75   74   78 1   
    76   75   76 1   
    77   75   79 1   
    78   75   80 1   
    79   76   77 2   
    80   76   81 1   
    81   81   82 1   
    82   81   93 1   
    83   82   83 1   
    84   82   85 1   
    85   82   94 1   
    86   83   84 2   
    87   83  102 1   
    88   85   86 1   
    89   85   95 1   
    90   85   96 1   
    91   86   87 ar  
    92   86   88 ar  
    93   87   89 ar  
    94   87   97 1   
    95   88   90 ar  
    96   88   98 1   
    97   89   91 ar  
    98   89   99 1   
    99   90   91 ar  
   100   90  100 1   
   101   91   92 1   
   102   92  101 1   
   103  102  103 1   
   104  102  110 1   
   105  103  104 1   
   106  103  106 1   
   107  103  111 1   
   108  104  105 2   
   109  104  121 1   
   110  106  107 1   
   111  106  108 1   
   112  106  112 1   
   113  107  109 1   
   114  107  113 1   
   115  107  114 1   
   116  108  115 1   
   117  108  116 1   
   118  108  117 1   
   119  109  118 1   
   120  109  119 1   
   121  109  120 1   
   122  121  122 1   
   123  121  127 1   
   124  122  123 1   
   125  122  125 1   
   126  122  128 1   
   127  123  124 2   
   128  123  132 1   
   129  125  126 1   
   130  125  129 1   
   131  125  130 1   
   132  126  131 1   
   133  132  133 1   
   134  132  137 1   
   135  133  134 1   
   136  133  136 1   
   137  133  138 1   
   138  134  135 2   
   139  134  142 1   
   140  136  139 1   
   141  136  140 1   
   142  136  141 1   
   143  142  143 1   
   144  142  147 1   
   145  143  144 1   
   146  143  146 1   
   147  143  148 1   
   148  144  145 2   
   149  144  152 1   
   150  146  149 1   
   151  146  150 1   
   152  146  151 1   
   153  152  153 1   
   154  152  161 1   
   155  153  154 1   
   156  153  156 1   
   157  153  162 1   
   158  154  155 2   
   159  154  167 1   
   160  156  157 1   
   161  156  163 1   
   162  156  164 1   
   163  157  158 1   
   164  157  165 1   
   165  157  166 1   
   166  158  159 1   
   167  158  160 1   
   168  167  168 1   
   169  167  172 1   
   170  168  169 1   
   171  168  170 1   
   172  168  171 1   
   173  174  175 1   
   174  174  176 1   
@<TRIPOS>SUBSTRUCTURE
     1 MOL         1 TEMP              0 ****  ****    0 ROOT
