@<TRIPOS>MOLECULE
MOL
  186   183     1     0     0
SMALL
resp


@<TRIPOS>ATOM
      1 C1         -0.4320   -2.2720   -6.1880 c3        1 MOL     -0.317151
      2 C2         -0.7430   -2.3470   -4.7020 c         1 MOL      0.693231
      3 O1          0.0260   -2.9960   -3.9670 o         1 MOL     -0.530047
      4 H1         -0.9060   -1.3890   -6.6150 hc        1 MOL      0.075085
      5 H2          0.6470   -2.2090   -6.3310 hc        1 MOL      0.075085
      6 H3         -0.8130   -3.1640   -6.6850 hc        1 MOL      0.075085
      7 N1         -1.8520   -1.7470   -4.2970 n         1 MOL     -0.627138
      8 C3         -2.3890   -1.6810   -2.9150 c3        1 MOL      0.249328
      9 C4         -3.2060   -2.9680   -2.7340 c         1 MOL      0.565263
     10 O2         -3.9380   -3.5170   -3.6020 o         1 MOL     -0.596589
     11 C5         -3.1920   -0.3950   -2.7320 c3        1 MOL     -0.181405
     12 C6         -4.0210   -0.2350   -1.4720 c         1 MOL      0.662342
     13 O3         -5.1100    0.3560   -1.5120 o         1 MOL     -0.669447
     14 O4         -3.5660   -0.8180   -0.4500 o         1 MOL     -0.669447
     15 H4         -2.2590   -1.2010   -5.0500 hn        1 MOL      0.324721
     16 H5         -1.6600   -1.6340   -2.1110 h1        1 MOL      0.045487
     17 H6         -3.8750   -0.5010   -3.5790 hc        1 MOL      0.008421
     18 H7         -2.5840    0.4940   -2.8720 hc        1 MOL      0.008421
     19 N2         -2.9940   -3.5930   -1.5320 n         1 MOL     -0.256863
     20 C7         -3.3020   -5.0080   -1.1790 c3        1 MOL     -0.047636
     21 C8         -4.1860   -4.9340    0.1030 c         1 MOL      0.418963
     22 O5         -5.0110   -5.8950    0.2020 o         1 MOL     -0.570106
     23 C9         -2.0100   -5.7720   -0.8830 c3        1 MOL      0.112425
     24 C10        -1.2460   -5.9380   -2.2200 c3        1 MOL      0.263039
     25 C11        -2.3540   -7.1040   -0.1630 c3        1 MOL     -0.271033
     26 C12         0.1800   -6.3830   -1.9660 c3        1 MOL     -0.383309
     27 H8         -2.2780   -3.1720   -0.9500 hn        1 MOL      0.104611
     28 H9         -3.8310   -5.4850   -2.0070 h1        1 MOL      0.093126
     29 H10        -1.3850   -5.2310   -0.1740 hc        1 MOL      0.044088
     30 H11        -1.1670   -5.0000   -2.7810 hc        1 MOL     -0.056155
     31 H12        -1.7050   -6.6740   -2.8800 hc        1 MOL     -0.056155
     32 H13        -2.9700   -7.7410   -0.7870 hc        1 MOL      0.057465
     33 H14        -1.4150   -7.6080    0.0860 hc        1 MOL      0.057465
     34 H15        -2.9430   -6.9420    0.7420 hc        1 MOL      0.057465
     35 H16         0.7850   -6.3920   -2.8730 hc        1 MOL      0.079165
     36 H17         0.7540   -5.6170   -1.4460 hc        1 MOL      0.079165
     37 H18         0.1420   -7.3350   -1.4350 hc        1 MOL      0.079165
     38 N3         -4.1360   -3.9720    1.0500 n         1 MOL     -0.253780
     39 C13        -4.9980   -3.8830    2.2410 c3        1 MOL      0.130690
     40 C14        -6.1870   -2.9580    1.8980 c         1 MOL      0.390372
     41 O6         -7.2290   -3.1100    2.6290 o         1 MOL     -0.566856
     42 C15        -4.2950   -3.5850    3.5520 c3        1 MOL     -0.146581
     43 C16        -3.5500   -2.2320    3.6130 c         1 MOL      0.814798
     44 O7         -2.8560   -1.9600    4.6170 o         1 MOL     -0.749126
     45 O8         -3.6690   -1.3820    2.7350 o         1 MOL     -0.749126
     46 H19        -3.4870   -3.2210    0.8500 hn        1 MOL      0.144822
     47 H20        -5.4630   -4.8620    2.3920 h1        1 MOL      0.059506
     48 H21        -3.5570   -4.3630    3.7260 hc        1 MOL      0.029461
     49 H22        -4.9830   -3.6550    4.3900 hc        1 MOL      0.029461
     50 N4         -6.1600   -2.2450    0.7630 n         1 MOL     -0.107460
     51 C17        -7.3520   -1.6740    0.1540 c3        1 MOL     -0.350137
     52 C18        -7.7190   -0.3360    0.7320 c         1 MOL      0.666174
     53 O9         -8.8590    0.0230    0.5770 o         1 MOL     -0.626888
     54 H23        -5.2780   -2.1650    0.2660 hn        1 MOL      0.166668
     55 H24        -8.2100   -2.3470    0.0660 h1        1 MOL      0.148522
     56 H25        -6.9990   -1.4150   -0.8450 h1        1 MOL      0.148522
     57 N5         -6.8210    0.3850    1.4210 n         1 MOL     -0.328470
     58 C19        -7.0130    1.6830    2.0580 c3        1 MOL      0.079606
     59 C20        -7.0680    2.8770    1.0020 c         1 MOL      0.417568
     60 O10        -7.5530    3.9230    1.3560 o         1 MOL     -0.561354
     61 C21        -5.8870    1.9500    3.0520 c3        1 MOL     -0.316129
     62 C22        -4.4320    2.0180    2.4700 c         1 MOL      0.881922
     63 O11        -4.1880    2.2520    1.3150 o         1 MOL     -0.804755
     64 O12        -3.4390    1.7830    3.2180 o         1 MOL     -0.804755
     65 H26        -5.9110   -0.0300    1.5490 hn        1 MOL      0.178142
     66 H27        -7.9290    1.7340    2.6370 h1        1 MOL      0.065129
     67 H28        -5.8830    1.0870    3.7180 hc        1 MOL      0.075369
     68 H29        -6.1740    2.8870    3.5390 hc        1 MOL      0.075369
     69 N6         -6.6760    2.5310   -0.2050 n         1 MOL     -0.095319
     70 C23        -6.6630    3.3530   -1.3840 c3        1 MOL     -0.216520
     71 C24        -5.3450    4.0430   -1.7100 c         1 MOL      0.616352
     72 O13        -5.4060    5.1300   -2.3620 o         1 MOL     -0.629754
     73 H30        -6.3030    1.6060   -0.3450 hn        1 MOL      0.179844
     74 H31        -7.4290    4.1190   -1.2800 h1        1 MOL      0.086858
     75 H32        -6.9100    2.6280   -2.1580 h1        1 MOL      0.086858
     76 N7         -4.1920    3.5570   -1.3350 n         1 MOL     -0.487880
     77 C25        -2.8520    4.1350   -1.4730 c3        1 MOL      0.161349
     78 C26        -1.7810    3.0230   -1.3620 c         1 MOL      0.371505
     79 O14        -1.9500    2.1030   -0.5650 o         1 MOL     -0.607459
     80 C27        -2.5950    5.3420   -0.5090 c3        1 MOL      0.053134
     81 C28        -3.3150    6.6270   -0.6520 c3        1 MOL     -0.207095
     82 C29        -2.8580    7.7520    0.1790 c         1 MOL      0.591201
     83 N8         -3.3090    7.8420    1.4140 n         1 MOL     -0.752907
     84 O15        -1.9810    8.5300   -0.1370 o         1 MOL     -0.560441
     85 H33        -4.2620    2.7520   -0.7260 hn        1 MOL      0.410316
     86 H34        -2.8110    4.4970   -2.5010 h1        1 MOL      0.028082
     87 H35        -1.5390    5.4810   -0.7460 hc        1 MOL      0.025382
     88 H36        -2.7510    4.9560    0.5090 hc        1 MOL      0.025382
     89 H37        -4.3610    6.4310   -0.4290 hc        1 MOL      0.072990
     90 H38        -3.2920    6.9260   -1.7000 hc        1 MOL      0.072990
     91 H39        -4.0150    7.1970    1.7390 hn        1 MOL      0.348033
     92 H40        -3.1260    8.6910    1.9310 hn        1 MOL      0.348033
     93 N9         -0.7820    3.0640   -2.2480 n         1 MOL     -0.252983
     94 C30         0.3460    2.0810   -2.2930 c3        1 MOL     -0.070943
     95 C31         1.5240    2.6290   -1.4690 c         1 MOL      0.288191
     96 O16         2.2150    3.6110   -1.7400 o         1 MOL     -0.559800
     97 C32         0.8820    2.0170   -3.7510 c3        1 MOL      0.351018
     98 C33         1.7630    0.7120   -3.8600 c3        1 MOL     -0.257614
     99 C34        -0.1850    1.9950   -4.8040 c3        1 MOL     -0.257614
    100 H41        -0.6820    3.7910   -2.9380 hn        1 MOL      0.227039
    101 H42         0.0570    1.0930   -1.9560 h1        1 MOL      0.191393
    102 H43         1.4800    2.8520   -4.1080 hc        1 MOL     -0.054238
    103 H44         2.5110    0.7310   -3.0720 hc        1 MOL      0.038891
    104 H45         1.0450   -0.1020   -3.8510 hc        1 MOL      0.038891
    105 H46         2.1840    0.7050   -4.8730 hc        1 MOL      0.038891
    106 H47         0.3130    1.9720   -5.7780 hc        1 MOL      0.038891
    107 H48        -0.8270    1.1390   -4.6250 hc        1 MOL      0.038891
    108 H49        -0.8530    2.8610   -4.7850 hc        1 MOL      0.038891
    109 N10         1.6010    2.0050   -0.3610 n         1 MOL      0.089811
    110 C35         2.7000    2.1810    0.6150 c3        1 MOL     -0.006054
    111 C36         4.0570    1.7130   -0.0210 c         1 MOL      0.329509
    112 O17         4.0090    0.8970   -0.9180 o         1 MOL     -0.264939
    113 C37         2.3360    1.1930    1.7740 c3        1 MOL     -0.497534
    114 C38         3.1750    1.3930    3.0190 c         1 MOL      0.794682
    115 N11         3.1200    0.4760    3.9220 n         1 MOL     -0.811203
    116 O18         3.9470    2.2730    3.2000 o         1 MOL     -0.599875
    117 H50         1.0810    1.1630   -0.1330 hn        1 MOL      0.035733
    118 H51         2.7880    3.2350    0.8630 h1        1 MOL      0.082559
    119 H52         2.5750    0.1570    1.5410 hc        1 MOL      0.186156
    120 H53         1.3240    1.3010    2.1680 hc        1 MOL      0.186156
    121 H54         2.5500   -0.3460    3.8260 hn        1 MOL      0.369045
    122 H55         3.5640    0.6230    4.8140 hn        1 MOL      0.369045
    123 N12         5.2460    2.1240    0.5100 n         1 MOL     -0.381238
    124 C39         6.5380    1.6220    0.0620 c3        1 MOL      0.032298
    125 C40         6.7260    0.0990    0.2910 c         1 MOL      0.599204
    126 O19         7.2200   -0.5600   -0.5920 o         1 MOL     -0.542487
    127 C41         7.6330    2.4280    0.6770 c3        1 MOL     -0.087908
    128 C42         8.9950    2.1540    0.0980 ca        1 MOL     -0.153137
    129 C43         9.3580    2.8040   -1.0970 ca        1 MOL      0.027761
    130 C44         9.9320    1.2540    0.7810 ca        1 MOL      0.027761
    131 C45        10.6070    2.6450   -1.6430 ca        1 MOL     -0.425624
    132 C46        11.1870    1.0800    0.1920 ca        1 MOL     -0.425624
    133 C47        11.4550    1.6850   -1.0790 ca        1 MOL      0.492659
    134 O20        12.5880    1.2580   -1.7280 oh        1 MOL     -0.565396
    135 H56         5.2070    2.8070    1.2480 hn        1 MOL      0.275560
    136 H57         6.5550    1.8420   -1.0030 h1        1 MOL      0.080070
    137 H58         7.7480    2.3990    1.7640 hc        1 MOL      0.057333
    138 H59         7.4520    3.4960    0.5350 hc        1 MOL      0.057333
    139 H60         8.6960    3.5580   -1.5130 ha        1 MOL      0.111269
    140 H61         9.6810    0.7090    1.6830 ha        1 MOL      0.111269
    141 H62        10.9360    3.0730   -2.5720 ha        1 MOL      0.172980
    142 H63        11.9300    0.3740    0.5520 ha        1 MOL      0.172980
    143 H64        13.0780    0.5710   -1.2680 ho        1 MOL      0.381496
    144 N13         6.1130   -0.4630    1.3220 n         1 MOL     -0.429582
    145 C48         6.0920   -1.9240    1.6180 c3        1 MOL     -0.018592
    146 C49         5.1340   -2.6780    0.6600 c         1 MOL      0.304312
    147 O21         5.2590   -3.8430    0.5440 o         1 MOL     -0.500303
    148 C50         5.7420   -2.1590    3.0870 c3        1 MOL     -0.036291
    149 C51         7.0380   -1.8710    3.9160 c3        1 MOL     -0.406240
    150 C52         6.6500   -1.6960    5.3900 c         1 MOL      0.772655
    151 O22         6.6440   -2.7210    6.0970 o         1 MOL     -0.746297
    152 O23         6.2940   -0.6330    5.9230 o         1 MOL     -0.746297
    153 H65         5.7070    0.1370    2.0280 hn        1 MOL      0.260433
    154 H66         7.1350   -2.2380    1.4980 h1        1 MOL      0.123536
    155 H67         5.4910   -3.2130    3.2280 hc        1 MOL      0.069686
    156 H68         4.8420   -1.6160    3.3920 hc        1 MOL      0.069686
    157 H69         7.5400   -0.9800    3.5490 hc        1 MOL      0.081346
    158 H70         7.8210   -2.5940    3.6790 hc        1 MOL      0.081346
    159 N14         4.2710   -1.9550   -0.0300 n         1 MOL     -0.151488
    160 C53         3.4670   -2.6190   -1.0780 c3        1 MOL      0.076860
    161 C54         4.2410   -2.4140   -2.4150 c         1 MOL      0.405533
    162 O24         4.1680   -3.1800   -3.3630 o         1 MOL     -0.542994
    163 C55         2.0840   -1.9660   -1.1920 c3        1 MOL      0.212414
    164 C56         1.2040   -2.3830    0.0270 c3        1 MOL      0.022009
    165 C57        -0.0310   -1.5320    0.1750 c         1 MOL      0.543728
    166 O25        -1.1500   -1.9960    0.5110 o         1 MOL     -0.671852
    167 O26         0.0190   -0.2860    0.0480 o         1 MOL     -0.671852
    168 H71         4.3210   -0.9450   -0.0090 hn        1 MOL      0.202835
    169 H72         3.3770   -3.7020   -1.0620 h1        1 MOL      0.059078
    170 H73         1.5930   -2.2920   -2.1100 hc        1 MOL     -0.058385
    171 H74         2.2370   -0.8890   -1.2790 hc        1 MOL     -0.058385
    172 H75         1.8370   -2.2850    0.9130 hc        1 MOL     -0.033997
    173 H76         0.9820   -3.4430    0.0860 hc        1 MOL     -0.033997
    174 N15         5.0090   -1.2420   -2.5140 n         1 MOL     -0.067221
    175 C58         5.7430   -0.8860   -3.7600 c3        1 MOL     -0.269700
    176 H77         5.2350   -0.0600   -4.2560 h1        1 MOL      0.096350
    177 H78         6.7620   -0.5880   -3.5100 h1        1 MOL      0.096350
    178 H79         5.7700   -1.7480   -4.4260 h1        1 MOL      0.096350
    179 H80         5.1180   -0.6900   -1.6770 hn        1 MOL      0.028998
    180 Ca1        -2.2040    0.2220    1.4010 Ca        1 MOL      1.785161
    181 O27        -0.9740    2.6010    2.1340 oh        1 MOL     -0.905253
    182 H81        -1.0840    2.8340    3.0470 ho        1 MOL      0.423030
    183 H82        -1.6690    3.0650    1.6770 ho        1 MOL      0.423030
    184 O28        -0.7700   -0.3060    3.7840 oh        1 MOL     -0.905253
    185 H83        -0.2910    0.0630    4.5260 ho        1 MOL      0.423030
    186 H84        -1.3490   -0.9660    4.1600 ho        1 MOL      0.423030
@<TRIPOS>BOND
     1    1    2 1   
     2    1    4 1   
     3    1    5 1   
     4    1    6 1   
     5    2    3 2   
     6    2    7 1   
     7    7    8 1   
     8    7   15 1   
     9    8    9 1   
    10    8   11 1   
    11    8   16 1   
    12    9   10 2   
    13    9   19 1   
    14   11   12 1   
    15   11   17 1   
    16   11   18 1   
    17   12   13 1   
    18   12   14 1   
    19   19   20 1   
    20   19   27 1   
    21   20   21 1   
    22   20   23 1   
    23   20   28 1   
    24   21   22 2   
    25   21   38 1   
    26   23   24 1   
    27   23   25 1   
    28   23   29 1   
    29   24   26 1   
    30   24   30 1   
    31   24   31 1   
    32   25   32 1   
    33   25   33 1   
    34   25   34 1   
    35   26   35 1   
    36   26   36 1   
    37   26   37 1   
    38   38   39 1   
    39   38   46 1   
    40   39   40 1   
    41   39   42 1   
    42   39   47 1   
    43   40   41 2   
    44   40   50 1   
    45   42   43 1   
    46   42   48 1   
    47   42   49 1   
    48   43   44 1   
    49   43   45 1   
    50   50   51 1   
    51   50   54 1   
    52   51   52 1   
    53   51   55 1   
    54   51   56 1   
    55   52   53 2   
    56   52   57 1   
    57   57   58 1   
    58   57   65 1   
    59   58   59 1   
    60   58   61 1   
    61   58   66 1   
    62   59   60 2   
    63   59   69 1   
    64   61   62 1   
    65   61   67 1   
    66   61   68 1   
    67   62   63 1   
    68   62   64 1   
    69   69   70 1   
    70   69   73 1   
    71   70   71 1   
    72   70   74 1   
    73   70   75 1   
    74   71   72 2   
    75   71   76 1   
    76   76   77 1   
    77   76   85 1   
    78   77   78 1   
    79   77   80 1   
    80   77   86 1   
    81   78   79 2   
    82   78   93 1   
    83   80   81 1   
    84   80   87 1   
    85   80   88 1   
    86   81   82 1   
    87   81   89 1   
    88   81   90 1   
    89   82   83 1   
    90   82   84 2   
    91   83   91 1   
    92   83   92 1   
    93   93   94 1   
    94   93  100 1   
    95   94   95 1   
    96   94   97 1   
    97   94  101 1   
    98   95   96 2   
    99   95  109 1   
   100   97   98 1   
   101   97   99 1   
   102   97  102 1   
   103   98  103 1   
   104   98  104 1   
   105   98  105 1   
   106   99  106 1   
   107   99  107 1   
   108   99  108 1   
   109  109  110 1   
   110  109  117 1   
   111  110  111 1   
   112  110  113 1   
   113  110  118 1   
   114  111  112 2   
   115  111  123 1   
   116  113  114 1   
   117  113  119 1   
   118  113  120 1   
   119  114  115 1   
   120  114  116 2   
   121  115  121 1   
   122  115  122 1   
   123  123  124 1   
   124  123  135 1   
   125  124  125 1   
   126  124  127 1   
   127  124  136 1   
   128  125  126 2   
   129  125  144 1   
   130  127  128 1   
   131  127  137 1   
   132  127  138 1   
   133  128  129 ar  
   134  128  130 ar  
   135  129  131 ar  
   136  129  139 1   
   137  130  132 ar  
   138  130  140 1   
   139  131  133 ar  
   140  131  141 1   
   141  132  133 ar  
   142  132  142 1   
   143  133  134 1   
   144  134  143 1   
   145  144  145 1   
   146  144  153 1   
   147  145  146 1   
   148  145  148 1   
   149  145  154 1   
   150  146  147 2   
   151  146  159 1   
   152  148  149 1   
   153  148  155 1   
   154  148  156 1   
   155  149  150 1   
   156  149  157 1   
   157  149  158 1   
   158  150  151 1   
   159  150  152 1   
   160  159  160 1   
   161  159  168 1   
   162  160  161 1   
   163  160  163 1   
   164  160  169 1   
   165  161  162 2   
   166  161  174 1   
   167  163  164 1   
   168  163  170 1   
   169  163  171 1   
   170  164  165 1   
   171  164  172 1   
   172  164  173 1   
   173  165  166 1   
   174  165  167 1   
   175  174  175 1   
   176  174  179 1   
   177  175  176 1   
   178  175  177 1   
   179  175  178 1   
   180  181  182 1   
   181  181  183 1   
   182  184  185 1   
   183  184  186 1   
@<TRIPOS>SUBSTRUCTURE
     1 MOL         1 TEMP              0 ****  ****    0 ROOT
