@<TRIPOS>MOLECULE
MOL
  189   185     1     0     0
SMALL
resp


@<TRIPOS>ATOM
      1 C1         -0.8530    0.2230    6.8180 c3        1 MOL     -0.466604
      2 C2         -1.0670    0.3360    5.2960 c         1 MOL      0.758850
      3 O1         -0.0810    0.3960    4.5660 o         1 MOL     -0.627728
      4 H1         -1.7830   -0.0930    7.2920 hc        1 MOL      0.123557
      5 H2         -0.0740   -0.5110    7.0220 hc        1 MOL      0.123557
      6 H3         -0.5530    1.1920    7.2160 hc        1 MOL      0.123557
      7 N1         -2.2850    0.5910    4.8160 n         1 MOL     -0.591111
      8 C3         -2.5490    0.8660    3.3970 c3        1 MOL      0.087034
      9 C4         -2.6650    2.4000    3.0720 c         1 MOL      0.519859
     10 O2         -3.3260    3.1360    3.8550 o         1 MOL     -0.516332
     11 C5         -3.7440    0.1260    2.8500 c3        1 MOL     -0.054084
     12 C6         -4.1420    0.5530    1.4450 c         1 MOL      0.532388
     13 O3         -5.2330    1.1480    1.4450 o         1 MOL     -0.627885
     14 O4         -3.3370    0.4740    0.4730 o         1 MOL     -0.627885
     15 H4         -3.0890    0.3350    5.3720 hn        1 MOL      0.310922
     16 H5         -1.6540    0.5290    2.8810 h1        1 MOL      0.095616
     17 H6         -4.6350    0.1720    3.4610 hc        1 MOL      0.036970
     18 H7         -3.4600   -0.9170    2.7960 hc        1 MOL      0.036970
     19 N2         -1.8370    2.9300    2.0250 n         1 MOL     -0.349998
     20 C7         -1.7110    4.3810    1.7220 c3        1 MOL      0.065245
     21 C8         -2.7700    4.9210    0.7920 c         1 MOL      0.484460
     22 O5         -3.1910    6.0970    0.9440 o         1 MOL     -0.580645
     23 C9         -0.2910    4.5650    1.0810 c3        1 MOL     -0.075395
     24 C10         0.8560    4.8990    2.1030 c3        1 MOL     -0.030655
     25 C11         2.1920    4.8280    1.3320 c3        1 MOL      0.022405
     26 C12         3.3160    5.2220    2.2840 c3        1 MOL     -0.091525
     27 N3          4.6600    5.0450    1.7570 n4        1 MOL     -0.176425
     28 H8         -1.2150    2.2410    1.6090 hn        1 MOL      0.194945
     29 H9         -1.7570    4.9970    2.6110 h1        1 MOL      0.051625
     30 H10        -0.4150    5.4330    0.4310 hc        1 MOL      0.047211
     31 H11        -0.0120    3.6680    0.5300 hc        1 MOL      0.047211
     32 H12         0.8850    4.0000    2.7200 hc        1 MOL      0.042192
     33 H13         0.7350    5.8010    2.6980 hc        1 MOL      0.042192
     34 H14         2.1650    5.5790    0.5420 hc        1 MOL      0.007103
     35 H15         2.3160    3.8090    0.9710 hc        1 MOL      0.007103
     36 H16         3.2550    4.6120    3.1800 hx        1 MOL      0.093303
     37 H17         3.2070    6.2530    2.6080 hx        1 MOL      0.093303
     38 H18         4.8260    4.0680    1.5700 hn        1 MOL      0.271668
     39 H19         4.8590    5.6420    0.9760 hn        1 MOL      0.271668
     40 H20         5.3300    5.4000    2.4340 hn        1 MOL      0.271668
     41 N4         -3.3080    4.1290   -0.0850 n         1 MOL     -0.233555
     42 C13        -4.0050    4.6890   -1.2450 c3        1 MOL     -0.059914
     43 C14        -5.3670    4.0100   -1.5020 c         1 MOL      0.480166
     44 O6         -6.0480    4.2890   -2.5390 o         1 MOL     -0.547195
     45 C15        -3.1140    4.6570   -2.5600 c3        1 MOL     -0.183623
     46 C16        -2.2540    3.4110   -2.9210 c         1 MOL      0.782793
     47 O7         -2.2440    2.4470   -2.1160 o         1 MOL     -0.695184
     48 O8         -1.3570    3.4820   -3.7390 o         1 MOL     -0.695184
     49 H21        -3.0450    3.1650   -0.2190 hn        1 MOL      0.160288
     50 H22        -4.3160    5.7070   -1.0360 h1        1 MOL      0.119982
     51 H23        -2.4410    5.5130   -2.5360 hc        1 MOL      0.047064
     52 H24        -3.7280    4.8020   -3.4550 hc        1 MOL      0.047064
     53 N5         -5.7930    3.2590   -0.5180 n         1 MOL     -0.260837
     54 C17        -7.1780    2.8690   -0.3510 c3        1 MOL     -0.268905
     55 C18        -7.5360    1.5210   -1.0400 c         1 MOL      0.471324
     56 O9         -8.7280    1.3270   -1.2250 o         1 MOL     -0.551468
     57 H25        -5.1910    2.9550    0.2400 hn        1 MOL      0.261944
     58 H26        -7.7860    3.6150   -0.8550 h1        1 MOL      0.148596
     59 H27        -7.4470    2.8370    0.7100 h1        1 MOL      0.148596
     60 N6         -6.5840    0.6790   -1.4680 n         1 MOL     -0.044814
     61 C19        -6.8770   -0.5910   -2.0540 c3        1 MOL      0.007882
     62 C20        -6.8630   -1.7070   -1.0450 c         1 MOL      0.406875
     63 O10        -7.4950   -2.7570   -1.2830 o         1 MOL     -0.543018
     64 C21        -5.9380   -0.8650   -3.2900 c3        1 MOL     -0.322154
     65 C22        -4.5100   -0.8300   -2.8780 c         1 MOL      0.819323
     66 O11        -4.1340   -1.6100   -1.9860 o         1 MOL     -0.758135
     67 O12        -3.6500   -0.0340   -3.3290 o         1 MOL     -0.758135
     68 H28        -5.6350    1.0270   -1.4860 hn        1 MOL      0.090701
     69 H29        -7.8780   -0.4110   -2.4200 h1        1 MOL      0.091638
     70 H30        -6.0480   -0.0390   -3.9940 hc        1 MOL      0.095984
     71 H31        -6.0790   -1.8870   -3.6620 hc        1 MOL      0.095984
     72 N7         -6.3770   -1.4330    0.1550 n         1 MOL     -0.190253
     73 C23        -6.2980   -2.4560    1.2130 c3        1 MOL     -0.276015
     74 C24        -5.2200   -3.4800    1.1740 c         1 MOL      0.536713
     75 O13        -5.0600   -4.1650    2.1920 o         1 MOL     -0.574265
     76 H32        -6.0130   -0.5140    0.3570 hn        1 MOL      0.186404
     77 H33        -7.1980   -3.0660    1.0810 h1        1 MOL      0.134195
     78 H34        -6.2930   -1.9580    2.1760 h1        1 MOL      0.134195
     79 N8         -4.4900   -3.4850    0.0540 n         1 MOL     -0.139335
     80 C25        -3.3410   -4.3540   -0.0880 c3        1 MOL     -0.347528
     81 C26        -1.9590   -3.5780   -0.0090 c         1 MOL      0.731171
     82 O14        -1.8810   -2.4120   -0.3580 o         1 MOL     -0.753085
     83 C27        -3.4080   -5.1310   -1.4060 c3        1 MOL      0.511263
     84 C28        -4.6530   -5.9890   -1.6710 c3        1 MOL     -0.316240
     85 O15        -3.3840   -4.2480   -2.5230 oh        1 MOL     -0.706499
     86 H35        -4.7270   -2.9090   -0.7460 hn        1 MOL      0.229785
     87 H36        -3.3320   -5.1000    0.7080 h1        1 MOL      0.094452
     88 H37        -2.4960   -5.7210   -1.4980 h1        1 MOL     -0.052664
     89 H38        -3.4270   -3.3550   -2.1610 ho        1 MOL      0.511874
     90 H39        -5.5230   -5.3350   -1.6490 hc        1 MOL      0.079928
     91 H40        -4.6230   -6.3380   -2.7040 hc        1 MOL      0.079928
     92 H41        -4.5980   -6.9360   -1.1330 hc        1 MOL      0.079928
     93 N9         -0.9420   -4.2430    0.5100 n         1 MOL     -0.471307
     94 C29         0.3610   -3.6620    0.8530 c3        1 MOL      0.127498
     95 C30         1.4680   -3.9760   -0.1810 c         1 MOL      0.314112
     96 O16         1.7480   -5.1860   -0.4040 o         1 MOL     -0.517910
     97 C31         0.7140   -3.9720    2.3510 c3        1 MOL      0.062703
     98 C32        -0.0850   -3.2150    3.4890 c3        1 MOL      0.018509
     99 C33         2.1970   -3.9540    2.7460 c3        1 MOL     -0.369189
    100 C34        -1.5400   -3.6520    3.5440 c3        1 MOL     -0.206867
    101 H42        -1.0960   -5.2160    0.7380 hn        1 MOL      0.275105
    102 H43         0.2470   -2.5740    0.8830 h1        1 MOL      0.170206
    103 H44         0.4340   -5.0160    2.4840 hc        1 MOL      0.026078
    104 H45         0.0130   -2.1400    3.2960 hc        1 MOL      0.032361
    105 H46         0.3140   -3.3830    4.4840 hc        1 MOL      0.032361
    106 H47         2.6400   -4.6820    2.0630 hc        1 MOL      0.096738
    107 H48         2.5050   -2.9220    2.6460 hc        1 MOL      0.096738
    108 H49         2.3450   -4.2450    3.7930 hc        1 MOL      0.096738
    109 H50        -1.6280   -4.7260    3.3670 hc        1 MOL      0.045938
    110 H51        -1.9280   -3.4730    4.5380 hc        1 MOL      0.045938
    111 H52        -2.1270   -3.1450    2.7720 hc        1 MOL      0.045938
    112 N10         2.0270   -2.9420   -0.7900 n         1 MOL     -0.023119
    113 C35         3.2370   -2.9620   -1.6700 c3        1 MOL     -0.097167
    114 C36         4.5810   -2.6960   -1.0120 c         1 MOL      0.341725
    115 O17         4.7020   -2.3670    0.1840 o         1 MOL     -0.347383
    116 C37         3.0700   -1.8790   -2.6830 c3        1 MOL      0.416705
    117 C38         1.9150   -2.1200   -3.5700 c3        1 MOL     -0.305080
    118 O18         2.9740   -0.6120   -2.1220 oh        1 MOL     -0.635117
    119 H53         1.7830   -2.0130   -0.4820 hn        1 MOL      0.004184
    120 H54         3.3350   -3.8680   -2.2690 h1        1 MOL      0.079045
    121 H55         3.9520   -1.8620   -3.3160 h1        1 MOL     -0.044042
    122 H56         2.0390   -0.5740   -1.9050 ho        1 MOL      0.339701
    123 H57         1.7280   -1.1880   -4.0980 hc        1 MOL      0.077430
    124 H58         2.1200   -2.9140   -4.2910 hc        1 MOL      0.077430
    125 H59         0.9700   -2.2700   -3.0480 hc        1 MOL      0.077430
    126 N11         5.7290   -2.9400   -1.6530 n         1 MOL     -0.237908
    127 C39         6.9950   -2.6780   -1.0330 c3        1 MOL     -0.285896
    128 C40         7.2910   -1.2900   -0.4840 c         1 MOL      0.561808
    129 O19         7.9850   -1.2620    0.5350 o         1 MOL     -0.532575
    130 C41         8.0430   -2.9530   -2.1240 c3        1 MOL      0.320849
    131 C42         8.3780   -4.4250   -2.4050 c3        1 MOL     -0.294369
    132 O20         7.8370   -2.2430   -3.2860 oh        1 MOL     -0.648661
    133 H60         5.7580   -3.4460   -2.5310 hn        1 MOL      0.293971
    134 H61         7.0650   -3.4310   -0.2450 h1        1 MOL      0.193271
    135 H62         8.9180   -2.4470   -1.7170 h1        1 MOL      0.011073
    136 H63         8.7090   -2.1090   -3.6700 ho        1 MOL      0.418841
    137 H64         8.8840   -4.8340   -1.5280 hc        1 MOL      0.086626
    138 H65         7.4210   -4.9360   -2.5340 hc        1 MOL      0.086626
    139 H66         8.9710   -4.5530   -3.3080 hc        1 MOL      0.086626
    140 N12         6.6060   -0.2450   -0.9350 n         1 MOL     -0.419432
    141 C43         6.6160    1.1310   -0.3490 c3        1 MOL     -0.006416
    142 C44         5.6520    1.2960    0.8780 c         1 MOL      0.489473
    143 O21         5.5300    2.3850    1.4660 o         1 MOL     -0.590525
    144 C45         6.2740    2.1650   -1.4620 c3        1 MOL     -0.051986
    145 C46         6.9630    3.5540   -1.3090 c3        1 MOL      0.184536
    146 C47         6.6830    4.4830   -2.5420 c3        1 MOL     -0.216180
    147 C48         7.7700    5.5860   -2.6570 c3        1 MOL      0.190830
    148 N13         9.0070    5.1120   -3.2750 n4        1 MOL     -0.391299
    149 H67         5.9660   -0.3390   -1.7060 hn        1 MOL      0.313747
    150 H68         7.6230    1.3440   -0.0020 h1        1 MOL      0.106647
    151 H69         5.2120    2.4050   -1.4030 hc        1 MOL      0.035675
    152 H70         6.6290    1.7800   -2.4260 hc        1 MOL      0.035675
    153 H71         8.0170    3.3460   -1.1360 hc        1 MOL     -0.069601
    154 H72         6.6050    4.0680   -0.4120 hc        1 MOL     -0.069601
    155 H73         5.7830    5.0140   -2.2420 hc        1 MOL      0.088214
    156 H74         6.5000    3.9340   -3.4670 hc        1 MOL      0.088214
    157 H75         8.0560    5.9480   -1.6720 hx        1 MOL      0.049503
    158 H76         7.3430    6.4770   -3.1090 hx        1 MOL      0.049503
    159 H77         9.3730    4.2910   -2.8080 hn        1 MOL      0.305328
    160 H78         8.8190    4.7120   -4.1840 hn        1 MOL      0.305328
    161 H79         9.6720    5.8550   -3.4110 hn        1 MOL      0.305328
    162 N14         4.9420    0.1970    1.2330 n         1 MOL     -0.246029
    163 C49         4.0230    0.2440    2.3670 c3        1 MOL     -0.116084
    164 C50         4.5980   -0.7330    3.4370 c         1 MOL      0.521841
    165 O22         4.4190   -0.5540    4.6170 o         1 MOL     -0.523079
    166 C51         2.6670   -0.1480    1.7600 c3        1 MOL      0.126145
    167 C52         2.0570    0.8530    0.8050 c3        1 MOL     -0.018577
    168 C53         0.7540    0.4090    0.0680 c         1 MOL      0.582092
    169 O23         0.7640   -0.3990   -0.9270 o         1 MOL     -0.648893
    170 O24        -0.3180    0.8570    0.4250 o         1 MOL     -0.648893
    171 H80         4.9120   -0.6200    0.6600 hn        1 MOL      0.158684
    172 H81         3.9630    1.1760    2.9220 h1        1 MOL      0.128059
    173 H82         1.9350   -0.4060    2.5240 hc        1 MOL     -0.004994
    174 H83         2.7300   -1.0890    1.2260 hc        1 MOL     -0.004994
    175 H84         2.8070    1.0560    0.0480 hc        1 MOL      0.028425
    176 H85         1.8430    1.7890    1.3130 hc        1 MOL      0.028425
    177 N15         5.2740   -1.7980    2.9690 n         1 MOL     -0.298614
    178 C54         5.6090   -2.9800    3.8080 c3        1 MOL     -0.137002
    179 H86         6.6910   -3.1030    3.8470 h1        1 MOL      0.084740
    180 H87         5.2240   -2.8310    4.8170 h1        1 MOL      0.084740
    181 H88         5.1580   -3.8730    3.3750 h1        1 MOL      0.084740
    182 H89         5.1400   -1.9830    1.9810 hn        1 MOL      0.196458
    183 Ca1        -1.7710   -0.0450   -1.5160 Ca        1 MOL      1.761521
    184 O25        -1.4420   -2.0770   -3.5000 oh        1 MOL     -0.805655
    185 H90        -1.2050   -1.8170   -4.3930 ho        1 MOL      0.385396
    186 H91        -1.8170   -2.9590   -3.5960 ho        1 MOL      0.385396
    187 O26        -0.4660    0.9360   -4.1590 oh        1 MOL     -0.805655
    188 H92        -0.9980    1.7390   -4.2170 ho        1 MOL      0.385396
    189 H93        -0.2020    0.7510   -5.0510 ho        1 MOL      0.385396
@<TRIPOS>BOND
     1    1    2 1   
     2    1    4 1   
     3    1    5 1   
     4    1    6 1   
     5    2    3 2   
     6    2    7 1   
     7    7    8 1   
     8    7   15 1   
     9    8    9 1   
    10    8   11 1   
    11    8   16 1   
    12    9   10 2   
    13    9   19 1   
    14   11   12 1   
    15   11   17 1   
    16   11   18 1   
    17   12   13 1   
    18   12   14 1   
    19   19   20 1   
    20   19   28 1   
    21   20   21 1   
    22   20   23 1   
    23   20   29 1   
    24   21   22 2   
    25   21   41 1   
    26   23   24 1   
    27   23   30 1   
    28   23   31 1   
    29   24   25 1   
    30   24   32 1   
    31   24   33 1   
    32   25   26 1   
    33   25   34 1   
    34   25   35 1   
    35   26   27 1   
    36   26   36 1   
    37   26   37 1   
    38   27   38 1   
    39   27   39 1   
    40   27   40 1   
    41   41   42 1   
    42   41   49 1   
    43   42   43 1   
    44   42   45 1   
    45   42   50 1   
    46   43   44 2   
    47   43   53 1   
    48   45   46 1   
    49   45   51 1   
    50   45   52 1   
    51   46   47 1   
    52   46   48 1   
    53   53   54 1   
    54   53   57 1   
    55   54   55 1   
    56   54   58 1   
    57   54   59 1   
    58   55   56 2   
    59   55   60 1   
    60   60   61 1   
    61   60   68 1   
    62   61   62 1   
    63   61   64 1   
    64   61   69 1   
    65   62   63 2   
    66   62   72 1   
    67   64   65 1   
    68   64   70 1   
    69   64   71 1   
    70   65   66 1   
    71   65   67 1   
    72   72   73 1   
    73   72   76 1   
    74   73   74 1   
    75   73   77 1   
    76   73   78 1   
    77   74   75 2   
    78   74   79 1   
    79   79   80 1   
    80   79   86 1   
    81   80   81 1   
    82   80   83 1   
    83   80   87 1   
    84   81   82 2   
    85   81   93 1   
    86   83   84 1   
    87   83   85 1   
    88   83   88 1   
    89   84   90 1   
    90   84   91 1   
    91   84   92 1   
    92   85   89 1   
    93   93   94 1   
    94   93  101 1   
    95   94   95 1   
    96   94   97 1   
    97   94  102 1   
    98   95   96 2   
    99   95  112 1   
   100   97   98 1   
   101   97   99 1   
   102   97  103 1   
   103   98  100 1   
   104   98  104 1   
   105   98  105 1   
   106   99  106 1   
   107   99  107 1   
   108   99  108 1   
   109  100  109 1   
   110  100  110 1   
   111  100  111 1   
   112  112  113 1   
   113  112  119 1   
   114  113  114 1   
   115  113  116 1   
   116  113  120 1   
   117  114  115 2   
   118  114  126 1   
   119  116  117 1   
   120  116  118 1   
   121  116  121 1   
   122  117  123 1   
   123  117  124 1   
   124  117  125 1   
   125  118  122 1   
   126  126  127 1   
   127  126  133 1   
   128  127  128 1   
   129  127  130 1   
   130  127  134 1   
   131  128  129 2   
   132  128  140 1   
   133  130  131 1   
   134  130  132 1   
   135  130  135 1   
   136  131  137 1   
   137  131  138 1   
   138  131  139 1   
   139  132  136 1   
   140  140  141 1   
   141  140  149 1   
   142  141  142 1   
   143  141  144 1   
   144  141  150 1   
   145  142  143 2   
   146  142  162 1   
   147  144  145 1   
   148  144  151 1   
   149  144  152 1   
   150  145  146 1   
   151  145  153 1   
   152  145  154 1   
   153  146  147 1   
   154  146  155 1   
   155  146  156 1   
   156  147  148 1   
   157  147  157 1   
   158  147  158 1   
   159  148  159 1   
   160  148  160 1   
   161  148  161 1   
   162  162  163 1   
   163  162  171 1   
   164  163  164 1   
   165  163  166 1   
   166  163  172 1   
   167  164  165 2   
   168  164  177 1   
   169  166  167 1   
   170  166  173 1   
   171  166  174 1   
   172  167  168 1   
   173  167  175 1   
   174  167  176 1   
   175  168  169 1   
   176  168  170 1   
   177  177  178 1   
   178  177  182 1   
   179  178  179 1   
   180  178  180 1   
   181  178  181 1   
   182  184  185 1   
   183  184  186 1   
   184  187  188 1   
   185  187  189 1   
@<TRIPOS>SUBSTRUCTURE
     1 MOL         1 TEMP              0 ****  ****    0 ROOT
