@<TRIPOS>MOLECULE
MOL
  186   183     1     0     0
SMALL
resp


@<TRIPOS>ATOM
      1 C1          0.9770   -1.5310    6.2750 c3        1 MOL     -0.385348
      2 C2          1.3070   -1.6740    4.7670 c         1 MOL      0.752233
      3 O1          0.4080   -1.9210    3.9300 o         1 MOL     -0.606602
      4 H1          1.8730   -1.2250    6.8150 hc        1 MOL      0.088778
      5 H2          0.1990   -0.7800    6.4080 hc        1 MOL      0.088778
      6 H3          0.6290   -2.4880    6.6630 hc        1 MOL      0.088778
      7 N1          2.5260   -1.4380    4.3910 n         1 MOL     -0.668378
      8 C3          3.0530   -1.4950    2.9730 c3        1 MOL      0.255923
      9 C4          3.6290   -2.8520    2.6000 c         1 MOL      0.547156
     10 O2          4.7230   -3.1720    3.1160 o         1 MOL     -0.584143
     11 C5          4.0840   -0.3460    2.8780 c3        1 MOL     -0.254139
     12 C6          4.6960   -0.2960    1.4710 c         1 MOL      0.764056
     13 O3          3.8750   -0.5250    0.5710 o         1 MOL     -0.629683
     14 O4          5.9120   -0.2030    1.3050 o         1 MOL     -0.629683
     15 H4          3.1790   -1.0020    5.0210 hn        1 MOL      0.335717
     16 H5          2.2070   -1.3650    2.3100 h1        1 MOL      0.018992
     17 H6          4.7880   -0.6360    3.6620 hc        1 MOL      0.025411
     18 H7          3.5540    0.5640    3.1620 hc        1 MOL      0.025411
     19 N2          3.0740   -3.5970    1.6250 n         1 MOL     -0.158280
     20 C7          3.3490   -5.0230    1.4280 c3        1 MOL     -0.363898
     21 C8          3.6160   -5.3840   -0.0170 c         1 MOL      0.593767
     22 O5          3.6010   -6.4990   -0.4420 o         1 MOL     -0.572434
     23 C9          2.1600   -5.7700    2.0970 c3        1 MOL      0.510140
     24 C10         0.8080   -5.4800    1.3780 c3        1 MOL     -0.143483
     25 C11         2.1670   -5.6560    3.5920 c3        1 MOL     -0.176807
     26 C12        -0.4240   -6.3630    1.6670 c3        1 MOL     -0.417154
     27 H8          2.3120   -3.1560    1.1350 hn        1 MOL      0.069381
     28 H9          4.2440   -5.2440    2.0020 h1        1 MOL      0.123852
     29 H10         2.4450   -6.8150    1.9700 hc        1 MOL     -0.098758
     30 H11         0.9450   -5.5470    0.2980 hc        1 MOL      0.109510
     31 H12         0.4960   -4.4460    1.4750 hc        1 MOL      0.109510
     32 H13         3.1810   -5.8150    3.9800 hc        1 MOL      0.011010
     33 H14         1.8400   -4.6470    3.8050 hc        1 MOL      0.011010
     34 H15         1.5360   -6.4490    3.9860 hc        1 MOL      0.011010
     35 H16        -0.1010   -7.3840    1.8920 hc        1 MOL      0.103940
     36 H17        -0.9770   -5.8670    2.4680 hc        1 MOL      0.103940
     37 H18        -1.0650   -6.3190    0.7850 hc        1 MOL      0.103940
     38 N3          4.0690   -4.3380   -0.7440 n         1 MOL     -0.223685
     39 C13         4.8390   -4.3090   -1.9820 c3        1 MOL     -0.092129
     40 C14         6.0280   -3.2550   -1.9970 c         1 MOL      0.488246
     41 O6          6.5610   -3.0060   -3.0690 o         1 MOL     -0.454943
     42 C15         3.9720   -4.3620   -3.2620 c3        1 MOL     -0.306174
     43 C16         2.9650   -3.1920   -3.2520 c         1 MOL      0.783284
     44 O7          3.1470   -2.1760   -2.5240 o         1 MOL     -0.704441
     45 O8          1.8450   -3.3360   -3.7850 o         1 MOL     -0.704441
     46 H19         3.8780   -3.4070   -0.3750 hn        1 MOL      0.154684
     47 H20         5.3660   -5.2590   -1.9630 h1        1 MOL      0.098125
     48 H21         3.3310   -5.2490   -3.2070 hc        1 MOL      0.090105
     49 H22         4.6360   -4.2940   -4.1210 hc        1 MOL      0.090105
     50 N4          6.4540   -2.7250   -0.8410 n         1 MOL     -0.446450
     51 C17         7.7540   -1.9840   -0.6530 c3        1 MOL      0.037432
     52 C18         8.0290   -0.7290   -1.4250 c         1 MOL      0.386827
     53 O9          8.9890   -0.7030   -2.1740 o         1 MOL     -0.554774
     54 H23         5.7410   -2.6930   -0.1230 hn        1 MOL      0.239881
     55 H24         8.5690   -2.6790   -0.8360 h1        1 MOL      0.060694
     56 H25         7.8220   -1.6530    0.3800 h1        1 MOL      0.060694
     57 N5          7.1940    0.3320   -1.3470 n         1 MOL     -0.117958
     58 C19         7.4040    1.7480   -1.8680 c3        1 MOL     -0.046981
     59 C20         7.1940    2.8940   -0.8030 c         1 MOL      0.385950
     60 O10         7.3360    4.1110   -1.0990 o         1 MOL     -0.534287
     61 C21         6.3300    1.9300   -2.9660 c3        1 MOL     -0.043858
     62 C22         4.9190    1.5220   -2.5560 c         1 MOL      0.832494
     63 O11         4.1600    0.8550   -3.2780 o         1 MOL     -0.798076
     64 O12         4.4950    1.8100   -1.4460 o         1 MOL     -0.798076
     65 H26         6.3720    0.1960   -0.7600 hn        1 MOL      0.099320
     66 H27         8.4010    1.9370   -2.2660 h1        1 MOL      0.108856
     67 H28         6.7570    1.3770   -3.8070 hc        1 MOL      0.009167
     68 H29         6.2920    2.9280   -3.3990 hc        1 MOL      0.009167
     69 N6          6.9200    2.5040    0.4700 n         1 MOL     -0.239140
     70 C23         6.6060    3.5710    1.5150 c3        1 MOL     -0.222485
     71 C24         5.2440    4.3140    1.4200 c         1 MOL      0.562188
     72 O13         5.0770    5.3820    2.0620 o         1 MOL     -0.620536
     73 H30         6.8330    1.5280    0.6860 hn        1 MOL      0.187886
     74 H31         7.3570    4.3600    1.4630 h1        1 MOL      0.107964
     75 H32         6.5260    3.1590    2.5200 h1        1 MOL      0.107964
     76 N7          4.3500    3.7290    0.6870 n         1 MOL     -0.379645
     77 C25         2.9800    4.3280    0.6350 c3        1 MOL      0.161547
     78 C26         1.9620    3.2370    0.8100 c         1 MOL      0.411801
     79 O14         2.1910    2.0180    0.5510 o         1 MOL     -0.534980
     80 C27         2.8240    4.7760   -0.7890 c3        1 MOL      0.196098
     81 C28         3.9490    5.6660   -1.2580 c3        1 MOL     -0.593030
     82 C29         3.7530    7.0700   -0.7770 c         1 MOL      0.671127
     83 N8          4.7720    7.7300   -0.2700 n         1 MOL     -0.707547
     84 O15         2.7570    7.8030   -0.9650 o         1 MOL     -0.606772
     85 H33         4.5710    2.9740    0.0560 hn        1 MOL      0.316143
     86 H34         2.8810    5.1640    1.3350 h1        1 MOL      0.057601
     87 H35         1.8570    5.2760   -0.8810 hc        1 MOL      0.004283
     88 H36         2.8040    3.8680   -1.3890 hc        1 MOL      0.004283
     89 H37         3.9460    5.6690   -2.3470 hc        1 MOL      0.183623
     90 H38         4.9460    5.3240   -1.0050 hc        1 MOL      0.183623
     91 H39         5.6520    7.2490   -0.1410 hn        1 MOL      0.333765
     92 H40         4.6540    8.7340   -0.2110 hn        1 MOL      0.333765
     93 N9          0.7370    3.7130    1.1710 n         1 MOL     -0.474710
     94 C30        -0.3430    2.8130    1.5240 c3        1 MOL     -0.109643
     95 C31        -1.6290    3.1050    0.7120 c         1 MOL      0.505961
     96 O16        -2.2830    4.1330    0.9070 o         1 MOL     -0.563483
     97 C32        -0.6980    2.7830    3.0480 c3        1 MOL      0.185766
     98 C33        -1.9890    1.9790    3.3820 c3        1 MOL     -0.369247
     99 C34         0.4350    2.2390    3.7990 c3        1 MOL     -0.369247
    100 H41         0.5600    4.7000    1.3050 hn        1 MOL      0.324489
    101 H42        -0.0270    1.8140    1.2210 h1        1 MOL      0.190667
    102 H43        -0.8320    3.7850    3.4570 hc        1 MOL     -0.004294
    103 H44        -1.6480    0.9420    3.3270 hc        1 MOL      0.097531
    104 H45        -2.2510    2.1820    4.4240 hc        1 MOL      0.097531
    105 H46        -2.8140    2.2560    2.7160 hc        1 MOL      0.097531
    106 H47         1.3480    2.6530    3.3540 hc        1 MOL      0.097531
    107 H48         0.4100    2.5270    4.8560 hc        1 MOL      0.097531
    108 H49         0.5250    1.1570    3.6810 hc        1 MOL      0.097531
    109 N10        -1.9530    2.3210   -0.3500 n         1 MOL     -0.321380
    110 C35        -3.2460    2.5770   -1.0020 c3        1 MOL      0.132141
    111 C36        -4.4260    2.0720   -0.2240 c         1 MOL      0.190429
    112 O17        -4.2910    1.5370    0.8680 o         1 MOL     -0.154028
    113 C37        -3.0900    1.9860   -2.4260 c3        1 MOL     -0.544889
    114 C38        -3.3390    0.5110   -2.5610 c         1 MOL      0.671850
    115 N11        -2.4130   -0.3760   -2.4330 n         1 MOL     -0.810286
    116 O18        -4.4490    0.0550   -2.8450 o         1 MOL     -0.510620
    117 H50        -1.3010    1.5720   -0.5470 hn        1 MOL      0.194140
    118 H51        -3.3100    3.6600   -1.0590 h1        1 MOL      0.081458
    119 H52        -2.1060    2.3030   -2.7930 hc        1 MOL      0.174886
    120 H53        -3.8320    2.4960   -3.0330 hc        1 MOL      0.174886
    121 H54        -1.5010   -0.0870   -2.0990 hn        1 MOL      0.427760
    122 H55        -2.5990   -1.3590   -2.6110 hn        1 MOL      0.427760
    123 N12        -5.6410    2.2390   -0.7790 n         1 MOL     -0.336936
    124 C39        -6.8350    1.7630   -0.1220 c3        1 MOL      0.032196
    125 C40        -6.9580    0.2420    0.0050 c         1 MOL      0.534548
    126 O19        -7.5440   -0.2670    0.9480 o         1 MOL     -0.523908
    127 C41        -7.9920    2.3010   -0.9550 c3        1 MOL     -0.421497
    128 C42        -9.4230    1.9860   -0.3920 ca        1 MOL      0.111577
    129 C43        -9.9550    2.6950    0.7150 ca        1 MOL     -0.097048
    130 C44       -10.2720    1.3100   -1.2580 ca        1 MOL     -0.097048
    131 C45       -11.3090    2.5150    0.9810 ca        1 MOL     -0.292778
    132 C46       -11.6170    1.2050   -1.1020 ca        1 MOL     -0.292778
    133 C47       -12.1480    1.7790    0.0670 ca        1 MOL      0.336609
    134 O20       -13.4660    1.6540    0.4460 oh        1 MOL     -0.528123
    135 H56        -5.6950    2.6360   -1.7060 hn        1 MOL      0.288463
    136 H57        -6.8210    2.3560    0.7980 h1        1 MOL      0.125565
    137 H58        -7.8640    1.9470   -1.9770 hc        1 MOL      0.122983
    138 H59        -7.7970    3.3680   -1.1170 hc        1 MOL      0.122983
    139 H60        -9.3200    3.3220    1.3350 ha        1 MOL      0.122362
    140 H61        -9.8910    0.9910   -2.2200 ha        1 MOL      0.122362
    141 H62       -11.5690    2.8740    1.9610 ha        1 MOL      0.153913
    142 H63       -12.2020    0.7070   -1.8680 ha        1 MOL      0.153913
    143 H64       -13.8840    1.0020   -0.1310 ho        1 MOL      0.377998
    144 N13        -6.4150   -0.5500   -0.9450 n         1 MOL     -0.112052
    145 C48        -6.3850   -1.9750   -0.7690 c3        1 MOL     -0.341502
    146 C49        -5.4670   -2.4360    0.4010 c         1 MOL      0.399617
    147 O21        -5.8020   -3.3200    1.1690 o         1 MOL     -0.496129
    148 C50        -6.0870   -2.6400   -2.1260 c3        1 MOL      0.342367
    149 C51        -7.1450   -2.2890   -3.1970 c3        1 MOL     -0.363534
    150 C52        -6.9090   -3.0020   -4.5260 c         1 MOL      0.692091
    151 O22        -6.0910   -2.6050   -5.4050 o         1 MOL     -0.732931
    152 O23        -7.3920   -4.1310   -4.7550 o         1 MOL     -0.732931
    153 H65        -5.7960   -0.1520   -1.6400 hn        1 MOL      0.100114
    154 H66        -7.3680   -2.3450   -0.4800 h1        1 MOL      0.160868
    155 H67        -6.0180   -3.7190   -1.9990 hc        1 MOL     -0.027198
    156 H68        -5.1230   -2.3130   -2.5150 hc        1 MOL     -0.027198
    157 H69        -7.0900   -1.2160   -3.3720 hc        1 MOL      0.038793
    158 H70        -8.0290   -2.6520   -2.6700 hc        1 MOL      0.038793
    159 N14        -4.3620   -1.7360    0.5740 n         1 MOL     -0.262270
    160 C53        -3.4680   -1.9340    1.6590 c3        1 MOL     -0.019507
    161 C54        -4.1240   -1.3720    3.0210 c         1 MOL      0.385636
    162 O24        -3.9600   -1.9830    4.0630 o         1 MOL     -0.551237
    163 C55        -2.1490   -1.1920    1.4230 c3        1 MOL      0.071734
    164 C56        -1.2060   -1.8840    0.4130 c3        1 MOL      0.073798
    165 C57        -0.0590   -1.0280    0.0120 c         1 MOL      0.565296
    166 O25         1.1450   -1.4920    0.1030 o         1 MOL     -0.635592
    167 O26        -0.2240    0.0830   -0.4960 o         1 MOL     -0.635592
    168 H71        -4.3740   -0.8310    0.1160 hn        1 MOL      0.209724
    169 H72        -3.1890   -2.9780    1.8400 h1        1 MOL      0.110209
    170 H73        -1.5750   -1.1150    2.3470 hc        1 MOL      0.025228
    171 H74        -2.4890   -0.2500    0.9980 hc        1 MOL      0.025228
    172 H75        -1.7850   -2.0500   -0.5020 hc        1 MOL     -0.047039
    173 H76        -0.9290   -2.8650    0.7940 hc        1 MOL     -0.047039
    174 N15        -4.9770   -0.3270    2.9410 n         1 MOL      0.106880
    175 C58        -5.5570    0.3290    4.1120 c3        1 MOL     -0.256730
    176 H77        -4.7600    0.6190    4.7970 h1        1 MOL      0.079703
    177 H78        -6.1060    1.2170    3.7970 h1        1 MOL      0.079703
    178 H79        -6.2350   -0.3580    4.6160 h1        1 MOL      0.079703
    179 H80        -5.0200    0.1490    2.0480 hn        1 MOL     -0.122447
    180 Ca1         2.4670    0.0450   -1.3980 Ca        1 MOL      1.710430
    181 O27         0.6530   -1.0010   -3.1130 oh        1 MOL     -0.831215
    182 H81         0.0070   -0.7400   -3.7690 ho        1 MOL      0.383699
    183 H82         1.0330   -1.8090   -3.4570 ho        1 MOL      0.383699
    184 O28         1.1860    2.2210   -2.6170 oh        1 MOL     -0.831215
    185 H83         1.4960    3.0770   -2.9090 ho        1 MOL      0.383699
    186 H84         0.4110    2.0550   -3.1440 ho        1 MOL      0.383699
@<TRIPOS>BOND
     1    1    2 1   
     2    1    4 1   
     3    1    5 1   
     4    1    6 1   
     5    2    3 2   
     6    2    7 1   
     7    7    8 1   
     8    7   15 1   
     9    8    9 1   
    10    8   11 1   
    11    8   16 1   
    12    9   10 2   
    13    9   19 1   
    14   11   12 1   
    15   11   17 1   
    16   11   18 1   
    17   12   13 1   
    18   12   14 1   
    19   19   20 1   
    20   19   27 1   
    21   20   21 1   
    22   20   23 1   
    23   20   28 1   
    24   21   22 2   
    25   21   38 1   
    26   23   24 1   
    27   23   25 1   
    28   23   29 1   
    29   24   26 1   
    30   24   30 1   
    31   24   31 1   
    32   25   32 1   
    33   25   33 1   
    34   25   34 1   
    35   26   35 1   
    36   26   36 1   
    37   26   37 1   
    38   38   39 1   
    39   38   46 1   
    40   39   40 1   
    41   39   42 1   
    42   39   47 1   
    43   40   41 2   
    44   40   50 1   
    45   42   43 1   
    46   42   48 1   
    47   42   49 1   
    48   43   44 1   
    49   43   45 1   
    50   50   51 1   
    51   50   54 1   
    52   51   52 1   
    53   51   55 1   
    54   51   56 1   
    55   52   53 2   
    56   52   57 1   
    57   57   58 1   
    58   57   65 1   
    59   58   59 1   
    60   58   61 1   
    61   58   66 1   
    62   59   60 2   
    63   59   69 1   
    64   61   62 1   
    65   61   67 1   
    66   61   68 1   
    67   62   63 1   
    68   62   64 1   
    69   69   70 1   
    70   69   73 1   
    71   70   71 1   
    72   70   74 1   
    73   70   75 1   
    74   71   72 2   
    75   71   76 1   
    76   76   77 1   
    77   76   85 1   
    78   77   78 1   
    79   77   80 1   
    80   77   86 1   
    81   78   79 2   
    82   78   93 1   
    83   80   81 1   
    84   80   87 1   
    85   80   88 1   
    86   81   82 1   
    87   81   89 1   
    88   81   90 1   
    89   82   83 1   
    90   82   84 2   
    91   83   91 1   
    92   83   92 1   
    93   93   94 1   
    94   93  100 1   
    95   94   95 1   
    96   94   97 1   
    97   94  101 1   
    98   95   96 2   
    99   95  109 1   
   100   97   98 1   
   101   97   99 1   
   102   97  102 1   
   103   98  103 1   
   104   98  104 1   
   105   98  105 1   
   106   99  106 1   
   107   99  107 1   
   108   99  108 1   
   109  109  110 1   
   110  109  117 1   
   111  110  111 1   
   112  110  113 1   
   113  110  118 1   
   114  111  112 2   
   115  111  123 1   
   116  113  114 1   
   117  113  119 1   
   118  113  120 1   
   119  114  115 1   
   120  114  116 2   
   121  115  121 1   
   122  115  122 1   
   123  123  124 1   
   124  123  135 1   
   125  124  125 1   
   126  124  127 1   
   127  124  136 1   
   128  125  126 2   
   129  125  144 1   
   130  127  128 1   
   131  127  137 1   
   132  127  138 1   
   133  128  129 ar  
   134  128  130 ar  
   135  129  131 ar  
   136  129  139 1   
   137  130  132 ar  
   138  130  140 1   
   139  131  133 ar  
   140  131  141 1   
   141  132  133 ar  
   142  132  142 1   
   143  133  134 1   
   144  134  143 1   
   145  144  145 1   
   146  144  153 1   
   147  145  146 1   
   148  145  148 1   
   149  145  154 1   
   150  146  147 2   
   151  146  159 1   
   152  148  149 1   
   153  148  155 1   
   154  148  156 1   
   155  149  150 1   
   156  149  157 1   
   157  149  158 1   
   158  150  151 1   
   159  150  152 1   
   160  159  160 1   
   161  159  168 1   
   162  160  161 1   
   163  160  163 1   
   164  160  169 1   
   165  161  162 2   
   166  161  174 1   
   167  163  164 1   
   168  163  170 1   
   169  163  171 1   
   170  164  165 1   
   171  164  172 1   
   172  164  173 1   
   173  165  166 1   
   174  165  167 1   
   175  174  175 1   
   176  174  179 1   
   177  175  176 1   
   178  175  177 1   
   179  175  178 1   
   180  181  182 1   
   181  181  183 1   
   182  184  185 1   
   183  184  186 1   
@<TRIPOS>SUBSTRUCTURE
     1 MOL         1 TEMP              0 ****  ****    0 ROOT
