@<TRIPOS>MOLECULE
MOL
  189   185     1     0     0
SMALL
resp


@<TRIPOS>ATOM
      1 C1         -0.7790    0.3800    6.5090 c3        1 MOL     -0.229389
      2 C2         -1.1630    0.5680    5.0360 c         1 MOL      0.702634
      3 O1         -0.2630    0.8500    4.2160 o         1 MOL     -0.675233
      4 H1         -1.4430    0.9760    7.1350 hc        1 MOL      0.056774
      5 H2         -0.8740   -0.6720    6.7780 hc        1 MOL      0.056774
      6 H3          0.2500    0.7040    6.6600 hc        1 MOL      0.056774
      7 N1         -2.3720    0.4050    4.6400 n         1 MOL     -0.561982
      8 C3         -2.7360    0.6850    3.2890 c3        1 MOL      0.230981
      9 C4         -3.1510    2.2070    3.1580 c         1 MOL      0.352263
     10 O2         -4.2790    2.6230    3.4740 o         1 MOL     -0.521094
     11 C5         -3.8300   -0.2960    2.9070 c3        1 MOL     -0.230779
     12 C6         -4.4370    0.1350    1.5430 c         1 MOL      0.673331
     13 O3         -3.6570    0.7130    0.7490 o         1 MOL     -0.615703
     14 O4         -5.5130   -0.3240    1.1430 o         1 MOL     -0.615703
     15 H4         -2.9470   -0.0920    5.3100 hn        1 MOL      0.318168
     16 H5         -1.9010    0.5120    2.6130 h1        1 MOL      0.070108
     17 H6         -4.6250   -0.4240    3.6400 hc        1 MOL      0.045091
     18 H7         -3.3120   -1.2300    2.7220 hc        1 MOL      0.045091
     19 N2         -2.2490    2.8760    2.4820 n         1 MOL     -0.037430
     20 C7         -2.0910    4.3820    2.4190 c3        1 MOL     -0.316247
     21 C8         -3.0320    5.0130    1.3540 c         1 MOL      0.573571
     22 O5         -3.3390    6.2120    1.3970 o         1 MOL     -0.571636
     23 C9         -0.5890    4.7560    2.2760 c3        1 MOL     -0.179575
     24 C10        -0.0770    4.5030    0.8060 c3        1 MOL      0.082954
     25 C11         1.4110    4.7500    0.6120 c3        1 MOL     -0.120324
     26 C12         1.8410    4.5610   -0.9280 c3        1 MOL      0.046637
     27 N3          1.0480    5.3390   -1.9120 n4        1 MOL     -0.273730
     28 H8         -1.5190    2.2670    2.1620 hn        1 MOL      0.122647
     29 H9         -2.4330    4.8470    3.3460 h1        1 MOL      0.190069
     30 H10         0.1100    4.2030    2.9110 hc        1 MOL      0.109004
     31 H11        -0.3940    5.7480    2.6750 hc        1 MOL      0.109004
     32 H12        -0.6900    5.1570    0.1770 hc        1 MOL      0.007461
     33 H13        -0.2690    3.5280    0.3670 hc        1 MOL      0.007461
     34 H14         1.9620    4.0580    1.2610 hc        1 MOL      0.045701
     35 H15         1.6430    5.7620    0.9330 hc        1 MOL      0.045701
     36 H16         1.9210    3.5240   -1.2420 hx        1 MOL      0.027815
     37 H17         2.8190    5.0180   -1.0610 hx        1 MOL      0.027815
     38 H18         0.5440    6.1390   -1.5580 hn        1 MOL      0.299969
     39 H19         1.6020    5.5490   -2.7370 hn        1 MOL      0.299969
     40 H20         0.2780    4.7310   -2.1270 hn        1 MOL      0.299969
     41 N4         -3.7350    4.2220    0.5370 n         1 MOL     -0.295275
     42 C13        -4.4940    4.7170   -0.6500 c3        1 MOL     -0.113770
     43 C14        -5.6780    3.7590   -1.0610 c         1 MOL      0.434826
     44 O6         -6.3060    3.9560   -2.1090 o         1 MOL     -0.490875
     45 C15        -3.5410    4.8630   -1.8060 c3        1 MOL     -0.093300
     46 C16        -2.4070    3.8640   -1.9030 c         1 MOL      1.091951
     47 O7         -1.3830    4.3170   -2.3990 o         1 MOL     -0.891301
     48 O8         -2.4680    2.6800   -1.4400 o         1 MOL     -0.891301
     49 H21        -3.4160    3.2550    0.5860 hn        1 MOL      0.140887
     50 H22        -4.8600    5.7420   -0.5920 h1        1 MOL      0.148694
     51 H23        -3.0580    5.8430   -1.8880 hc        1 MOL      0.019555
     52 H24        -4.0800    4.6950   -2.7370 hc        1 MOL      0.019555
     53 N5         -5.9590    2.7290   -0.2620 n         1 MOL     -0.214957
     54 C17        -7.2660    1.9890   -0.2160 c3        1 MOL     -0.171874
     55 C18        -7.4930    0.9790   -1.2970 c         1 MOL      0.503808
     56 O9         -8.5650    0.9320   -1.9050 o         1 MOL     -0.577498
     57 H25        -5.3550    2.5340    0.5230 hn        1 MOL      0.228531
     58 H26        -8.0830    2.7080   -0.2610 h1        1 MOL      0.105253
     59 H27        -7.3430    1.4970    0.7580 h1        1 MOL      0.105253
     60 N6         -6.5280    0.1750   -1.6490 n         1 MOL     -0.084237
     61 C19        -6.7230   -0.9740   -2.4270 c3        1 MOL      0.021416
     62 C20        -6.7710   -2.3470   -1.7150 c         1 MOL      0.295701
     63 O10        -7.1180   -3.4520   -2.2640 o         1 MOL     -0.491494
     64 C21        -5.6370   -0.8580   -3.4660 c3        1 MOL     -0.176432
     65 C22        -4.2510   -0.5540   -2.8460 c         1 MOL      0.650418
     66 O11        -3.6340    0.4880   -3.1610 o         1 MOL     -0.700254
     67 O12        -3.7650   -1.3050   -1.9910 o         1 MOL     -0.700254
     68 H28        -5.6590    0.2520   -1.1440 hn        1 MOL      0.083606
     69 H29        -7.6690   -0.9270   -2.9640 h1        1 MOL      0.123104
     70 H30        -5.9120   -0.1230   -4.2140 hc        1 MOL      0.056077
     71 H31        -5.6360   -1.8710   -3.8860 hc        1 MOL      0.056077
     72 N7         -6.6340   -2.3700   -0.3490 n         1 MOL     -0.127199
     73 C23        -6.5860   -3.5230    0.5340 c3        1 MOL     -0.250080
     74 C24        -5.2880   -4.3950    0.5370 c         1 MOL      0.513670
     75 O13        -5.3530   -5.5960    0.7870 o         1 MOL     -0.531522
     76 H32        -6.5030   -1.4800    0.1320 hn        1 MOL      0.161782
     77 H33        -7.4250   -4.1260    0.1880 h1        1 MOL      0.123742
     78 H34        -6.8130   -3.1840    1.5450 h1        1 MOL      0.123742
     79 N8         -4.2100   -3.7320    0.1080 n         1 MOL     -0.291792
     80 C25        -2.9470   -4.3770   -0.3420 c3        1 MOL     -0.271831
     81 C26        -1.7040   -3.4930   -0.1320 c         1 MOL      0.723920
     82 O14        -1.7700   -2.2380   -0.2140 o         1 MOL     -0.706672
     83 C27        -3.0090   -4.8360   -1.7800 c3        1 MOL      0.463039
     84 C28        -4.0830   -5.8050   -2.1460 c3        1 MOL     -0.303213
     85 O15        -3.2640   -3.7900   -2.5920 oh        1 MOL     -0.677249
     86 H35        -4.2400   -2.7380   -0.0550 hn        1 MOL      0.258026
     87 H36        -2.8260   -5.2790    0.2580 h1        1 MOL      0.104664
     88 H37        -2.0080   -5.1900   -2.0410 h1        1 MOL     -0.061863
     89 H38        -3.2280   -2.9220   -2.1630 ho        1 MOL      0.511694
     90 H39        -5.0830   -5.3800   -2.0270 hc        1 MOL      0.081078
     91 H40        -4.1180   -6.3080   -3.1150 hc        1 MOL      0.081078
     92 H41        -3.9120   -6.6100   -1.4270 hc        1 MOL      0.081078
     93 N9         -0.5970   -4.1720    0.1560 n         1 MOL     -0.550036
     94 C29         0.6180   -3.5130    0.5570 c3        1 MOL      0.086705
     95 C30         1.7750   -3.8030   -0.4770 c         1 MOL      0.419169
     96 O16         2.1950   -4.9400   -0.6640 o         1 MOL     -0.541076
     97 C31         0.9400   -3.9510    2.0040 c3        1 MOL      0.039210
     98 C32         0.0100   -3.2260    3.0930 c3        1 MOL     -0.064361
     99 C33         2.4270   -3.6700    2.3430 c3        1 MOL     -0.264840
    100 C34         0.1250   -3.7120    4.5390 c3        1 MOL     -0.307272
    101 H42        -0.6650   -5.1660    0.3450 hn        1 MOL      0.308702
    102 H43         0.5820   -2.4260    0.4840 h1        1 MOL      0.101666
    103 H44         0.7050   -4.9990    2.1820 hc        1 MOL      0.039772
    104 H45        -1.0140   -3.3610    2.7420 hc        1 MOL      0.065464
    105 H46         0.1360   -2.1460    3.0710 hc        1 MOL      0.065464
    106 H47         3.0300   -4.3770    1.7670 hc        1 MOL      0.058933
    107 H48         2.6750   -2.6460    2.0770 hc        1 MOL      0.058933
    108 H49         2.6540   -3.7300    3.4030 hc        1 MOL      0.058933
    109 H50         1.0010   -3.3450    5.0890 hc        1 MOL      0.085863
    110 H51        -0.8440   -3.5600    5.0110 hc        1 MOL      0.085863
    111 H52         0.3410   -4.7740    4.4490 hc        1 MOL      0.085863
    112 N10         2.3830   -2.7340   -0.9030 n         1 MOL     -0.054326
    113 C35         3.5810   -2.5450   -1.7600 c3        1 MOL     -0.136062
    114 C36         4.8150   -2.5390   -0.8990 c         1 MOL      0.436525
    115 O17         4.7720   -2.6690    0.2720 o         1 MOL     -0.365332
    116 C37         3.4360   -1.2750   -2.6030 c3        1 MOL      0.206102
    117 C38         2.1750   -1.5060   -3.5030 c3        1 MOL     -0.319446
    118 O18         3.1130   -0.2130   -1.6730 oh        1 MOL     -0.599912
    119 H53         1.9920   -1.8950   -0.4940 hn        1 MOL      0.065828
    120 H54         3.6720   -3.3870   -2.4480 h1        1 MOL      0.088230
    121 H55         4.3100   -1.0410   -3.2120 h1        1 MOL      0.040461
    122 H56         2.2080   -0.4100   -1.4190 ho        1 MOL      0.390774
    123 H57         1.2770   -1.7640   -2.9590 hc        1 MOL      0.088524
    124 H58         1.9070   -0.6040   -4.0530 hc        1 MOL      0.088524
    125 H59         2.3950   -2.2590   -4.2610 hc        1 MOL      0.088524
    126 N11         5.9180   -2.3380   -1.5260 n         1 MOL     -0.285763
    127 C39         7.2670   -2.1470   -0.7870 c3        1 MOL     -0.290769
    128 C40         7.4420   -0.8790   -0.0070 c         1 MOL      0.421876
    129 O19         8.1830   -0.7760    0.9760 o         1 MOL     -0.485087
    130 C41         8.4260   -2.2180   -1.8330 c3        1 MOL      0.272599
    131 C42         8.5070   -3.6270   -2.4840 c3        1 MOL     -0.260571
    132 O20         8.1980   -1.2680   -2.8010 oh        1 MOL     -0.649116
    133 H60         6.0020   -2.4330   -2.5200 hn        1 MOL      0.292287
    134 H61         7.4380   -2.9560   -0.0770 h1        1 MOL      0.184285
    135 H62         9.3920   -1.9470   -1.4200 h1        1 MOL      0.044844
    136 H63         8.9810   -0.7280   -2.8970 ho        1 MOL      0.425574
    137 H64         9.2550   -3.6260   -3.2780 hc        1 MOL      0.087039
    138 H65         8.8320   -4.4000   -1.7980 hc        1 MOL      0.087039
    139 H66         7.5610   -3.9710   -2.9200 hc        1 MOL      0.087039
    140 N12         6.6530    0.1900   -0.3110 n         1 MOL     -0.249207
    141 C43         6.7070    1.5600    0.3080 c3        1 MOL      0.003186
    142 C44         5.8700    1.5370    1.5780 c         1 MOL      0.344160
    143 O21         6.2150    2.1800    2.6000 o         1 MOL     -0.485016
    144 C45         6.1490    2.6190   -0.6950 c3        1 MOL     -0.276545
    145 C46         6.7920    2.8690   -2.1350 c3        1 MOL      0.056173
    146 C47         8.2500    3.2800   -2.0940 c3        1 MOL     -0.041582
    147 C48         8.7060    3.7290   -3.4400 c3        1 MOL     -0.012571
    148 N13        10.1710    3.9900   -3.3110 n4        1 MOL     -0.312927
    149 H67         5.9660    0.0780   -1.0400 hn        1 MOL      0.240574
    150 H68         7.7280    1.8220    0.5690 h1        1 MOL      0.099348
    151 H69         6.1070    3.5590   -0.1400 hc        1 MOL      0.104243
    152 H70         5.1090    2.4090   -0.9560 hc        1 MOL      0.104243
    153 H71         6.2140    3.6350   -2.6520 hc        1 MOL      0.008520
    154 H72         6.7720    1.9580   -2.7440 hc        1 MOL      0.008520
    155 H73         8.8080    2.4460   -1.6670 hc        1 MOL      0.050552
    156 H74         8.3020    4.0640   -1.3310 hc        1 MOL      0.050552
    157 H75         8.0980    4.5750   -3.7620 hx        1 MOL      0.106363
    158 H76         8.5640    2.9120   -4.1520 hx        1 MOL      0.106363
    159 H77        10.6470    3.1910   -2.9160 hn        1 MOL      0.305822
    160 H78        10.6000    4.2200   -4.2040 hn        1 MOL      0.305822
    161 H79        10.3570    4.7740   -2.6960 hn        1 MOL      0.305822
    162 N14         4.8080    0.7340    1.5310 n         1 MOL     -0.076947
    163 C49         3.9140    0.5180    2.5730 c3        1 MOL     -0.217322
    164 C50         4.5120   -0.5300    3.5030 c         1 MOL      0.496504
    165 O22         4.3580   -0.4420    4.7450 o         1 MOL     -0.558791
    166 C51         2.5920   -0.0630    1.9980 c3        1 MOL      0.097181
    167 C52         1.7550    1.0270    1.3360 c3        1 MOL      0.021330
    168 C53         0.6010    0.4310    0.5410 c         1 MOL      0.530834
    169 O23         0.8150   -0.3590   -0.3970 o         1 MOL     -0.641849
    170 O24        -0.5130    0.7890    0.7950 o         1 MOL     -0.641849
    171 H80         4.5580    0.4340    0.6020 hn        1 MOL      0.105884
    172 H81         3.7680    1.4000    3.2020 h1        1 MOL      0.114401
    173 H82         2.0480   -0.4990    2.8380 hc        1 MOL      0.081918
    174 H83         2.9030   -0.7680    1.2260 hc        1 MOL      0.081918
    175 H84         2.3540    1.5880    0.6250 hc        1 MOL      0.013919
    176 H85         1.3800    1.6890    2.1200 hc        1 MOL      0.013919
    177 N15         5.0480   -1.6000    2.9500 n         1 MOL     -0.093869
    178 C54         5.8360   -2.6690    3.7370 c3        1 MOL     -0.269730
    179 H86         5.4670   -2.7110    4.7620 h1        1 MOL      0.109502
    180 H87         5.7040   -3.6410    3.2630 h1        1 MOL      0.109502
    181 H88         6.8950   -2.4090    3.7440 h1        1 MOL      0.109502
    182 H89         5.0970   -1.6780    1.9390 hn        1 MOL      0.134095
    183 Ca1        -1.8620    0.2250   -1.1930 Ca        1 MOL      1.801357
    184 O25        -0.2640    1.5060   -2.7950 oh        1 MOL     -0.837037
    185 H90        -0.7160    2.3470   -2.7800 ho        1 MOL      0.398678
    186 H91         0.6570    1.7340   -2.9640 ho        1 MOL      0.398678
    187 O26        -1.1180   -1.3230   -3.3400 oh        1 MOL     -0.837037
    188 H92        -0.4800   -0.9910   -3.9830 ho        1 MOL      0.398678
    189 H93        -1.7150   -1.8580   -3.8600 ho        1 MOL      0.398678
@<TRIPOS>BOND
     1    1    2 1   
     2    1    4 1   
     3    1    5 1   
     4    1    6 1   
     5    2    3 2   
     6    2    7 1   
     7    7    8 1   
     8    7   15 1   
     9    8    9 1   
    10    8   11 1   
    11    8   16 1   
    12    9   10 2   
    13    9   19 1   
    14   11   12 1   
    15   11   17 1   
    16   11   18 1   
    17   12   13 1   
    18   12   14 1   
    19   19   20 1   
    20   19   28 1   
    21   20   21 1   
    22   20   23 1   
    23   20   29 1   
    24   21   22 2   
    25   21   41 1   
    26   23   24 1   
    27   23   30 1   
    28   23   31 1   
    29   24   25 1   
    30   24   32 1   
    31   24   33 1   
    32   25   26 1   
    33   25   34 1   
    34   25   35 1   
    35   26   27 1   
    36   26   36 1   
    37   26   37 1   
    38   27   38 1   
    39   27   39 1   
    40   27   40 1   
    41   41   42 1   
    42   41   49 1   
    43   42   43 1   
    44   42   45 1   
    45   42   50 1   
    46   43   44 2   
    47   43   53 1   
    48   45   46 1   
    49   45   51 1   
    50   45   52 1   
    51   46   47 1   
    52   46   48 1   
    53   53   54 1   
    54   53   57 1   
    55   54   55 1   
    56   54   58 1   
    57   54   59 1   
    58   55   56 2   
    59   55   60 1   
    60   60   61 1   
    61   60   68 1   
    62   61   62 1   
    63   61   64 1   
    64   61   69 1   
    65   62   63 2   
    66   62   72 1   
    67   64   65 1   
    68   64   70 1   
    69   64   71 1   
    70   65   66 1   
    71   65   67 1   
    72   72   73 1   
    73   72   76 1   
    74   73   74 1   
    75   73   77 1   
    76   73   78 1   
    77   74   75 2   
    78   74   79 1   
    79   79   80 1   
    80   79   86 1   
    81   80   81 1   
    82   80   83 1   
    83   80   87 1   
    84   81   82 2   
    85   81   93 1   
    86   83   84 1   
    87   83   85 1   
    88   83   88 1   
    89   84   90 1   
    90   84   91 1   
    91   84   92 1   
    92   85   89 1   
    93   93   94 1   
    94   93  101 1   
    95   94   95 1   
    96   94   97 1   
    97   94  102 1   
    98   95   96 2   
    99   95  112 1   
   100   97   98 1   
   101   97   99 1   
   102   97  103 1   
   103   98  100 1   
   104   98  104 1   
   105   98  105 1   
   106   99  106 1   
   107   99  107 1   
   108   99  108 1   
   109  100  109 1   
   110  100  110 1   
   111  100  111 1   
   112  112  113 1   
   113  112  119 1   
   114  113  114 1   
   115  113  116 1   
   116  113  120 1   
   117  114  115 2   
   118  114  126 1   
   119  116  117 1   
   120  116  118 1   
   121  116  121 1   
   122  117  123 1   
   123  117  124 1   
   124  117  125 1   
   125  118  122 1   
   126  126  127 1   
   127  126  133 1   
   128  127  128 1   
   129  127  130 1   
   130  127  134 1   
   131  128  129 2   
   132  128  140 1   
   133  130  131 1   
   134  130  132 1   
   135  130  135 1   
   136  131  137 1   
   137  131  138 1   
   138  131  139 1   
   139  132  136 1   
   140  140  141 1   
   141  140  149 1   
   142  141  142 1   
   143  141  144 1   
   144  141  150 1   
   145  142  143 2   
   146  142  162 1   
   147  144  145 1   
   148  144  151 1   
   149  144  152 1   
   150  145  146 1   
   151  145  153 1   
   152  145  154 1   
   153  146  147 1   
   154  146  155 1   
   155  146  156 1   
   156  147  148 1   
   157  147  157 1   
   158  147  158 1   
   159  148  159 1   
   160  148  160 1   
   161  148  161 1   
   162  162  163 1   
   163  162  171 1   
   164  163  164 1   
   165  163  166 1   
   166  163  172 1   
   167  164  165 2   
   168  164  177 1   
   169  166  167 1   
   170  166  173 1   
   171  166  174 1   
   172  167  168 1   
   173  167  175 1   
   174  167  176 1   
   175  168  169 1   
   176  168  170 1   
   177  177  178 1   
   178  177  182 1   
   179  178  179 1   
   180  178  180 1   
   181  178  181 1   
   182  184  185 1   
   183  184  186 1   
   184  187  188 1   
   185  187  189 1   
@<TRIPOS>SUBSTRUCTURE
     1 MOL         1 TEMP              0 ****  ****    0 ROOT
