@<TRIPOS>MOLECULE
MOL
  189   185     1     0     0
SMALL
resp


@<TRIPOS>ATOM
      1 C1          1.0530   -2.8440    6.2980 c3        1 MOL     -0.492263
      2 C2          1.2090   -2.7980    4.8020 c         1 MOL      0.778981
      3 O1          0.9280   -1.7830    4.1660 o         1 MOL     -0.648547
      4 H1          1.8330   -2.2400    6.7630 hc        1 MOL      0.126137
      5 H2          0.0760   -2.4480    6.5740 hc        1 MOL      0.126137
      6 H3          1.1390   -3.8750    6.6410 hc        1 MOL      0.126137
      7 N1          1.5160   -3.8550    4.0700 n         1 MOL     -0.591542
      8 C3          2.1150   -3.7820    2.7510 c3        1 MOL      0.192871
      9 C4          1.7380   -4.9860    1.8710 c         1 MOL      0.402917
     10 O2          1.8760   -6.1590    2.3210 o         1 MOL     -0.574564
     11 C5          3.5930   -3.6790    2.8130 c3        1 MOL     -0.270657
     12 C6          4.2510   -3.2770    1.4790 c         1 MOL      0.847515
     13 O3          3.6330   -2.6550    0.6420 o         1 MOL     -0.720555
     14 O4          5.4480   -3.5930    1.3080 o         1 MOL     -0.720555
     15 H4          1.8000   -4.6430    4.6250 hn        1 MOL      0.298251
     16 H5          1.7940   -2.8750    2.2390 h1        1 MOL      0.088984
     17 H6          4.0280   -4.6220    3.1590 hc        1 MOL      0.028212
     18 H7          3.7860   -2.9370    3.5870 hc        1 MOL      0.028212
     19 N2          1.3750   -4.7120    0.6250 n         1 MOL     -0.033724
     20 C7          1.1270   -5.7040   -0.4040 c3        1 MOL     -0.221906
     21 C8          1.8530   -5.4050   -1.8240 c         1 MOL      0.505727
     22 O5          1.6030   -6.1640   -2.7640 o         1 MOL     -0.551006
     23 C9         -0.3630   -6.0030   -0.5990 c3        1 MOL      0.249059
     24 C10        -1.0440   -4.7650   -1.2450 c3        1 MOL      0.096062
     25 C11        -0.9470   -6.6520    0.7020 c3        1 MOL     -0.084160
     26 C12        -2.4820   -4.9570   -1.4730 c3        1 MOL     -0.332716
     27 H8          1.2770   -3.7230    0.4210 hn        1 MOL      0.049382
     28 H9          1.6620   -6.6040   -0.0800 h1        1 MOL      0.093848
     29 H10        -0.4200   -6.7280   -1.4040 hc        1 MOL     -0.049955
     30 H11        -0.5050   -4.4180   -2.1220 hc        1 MOL      0.044168
     31 H12        -1.0150   -3.9790   -0.4930 hc        1 MOL      0.044168
     32 H13        -1.0640   -5.9770    1.5450 hc        1 MOL      0.000033
     33 H14        -1.9360   -7.0530    0.4800 hc        1 MOL      0.000033
     34 H15        -0.3450   -7.5180    0.9780 hc        1 MOL      0.000033
     35 H16        -2.9460   -4.8920   -0.4880 hc        1 MOL      0.066904
     36 H17        -2.8550   -4.0560   -1.9710 hc        1 MOL      0.066904
     37 H18        -2.5650   -5.8580   -2.0700 hc        1 MOL      0.066904
     38 N3          2.6780   -4.3400   -1.8420 n         1 MOL     -0.359715
     39 C13         3.3210   -3.8740   -3.1000 c3        1 MOL      0.012406
     40 C14         4.7690   -3.3340   -2.9140 c         1 MOL      0.377575
     41 O6          5.4570   -3.3360   -3.9520 o         1 MOL     -0.557285
     42 C15         2.4210   -2.7720   -3.8080 c3        1 MOL     -0.262231
     43 C16         1.9840   -1.6220   -2.9750 c         1 MOL      0.785523
     44 O7          2.7300   -1.2390   -2.0180 o         1 MOL     -0.707402
     45 O8          0.8970   -1.1210   -3.3120 o         1 MOL     -0.707402
     46 H19         2.8700   -3.7910   -1.0100 hn        1 MOL      0.215727
     47 H20         3.3270   -4.7300   -3.7880 h1        1 MOL      0.095477
     48 H21         1.5830   -3.2950   -4.2720 hc        1 MOL      0.081779
     49 H22         3.0200   -2.2830   -4.5820 hc        1 MOL      0.081779
     50 N4          5.2230   -2.9080   -1.7180 n         1 MOL     -0.081901
     51 C17         6.6610   -2.4080   -1.5180 c3        1 MOL     -0.307924
     52 C18         7.0070   -1.0190   -2.1030 c         1 MOL      0.513875
     53 O9          8.1760   -0.6590   -2.1820 o         1 MOL     -0.607031
     54 H23         4.6240   -2.9710   -0.9030 hn        1 MOL      0.128977
     55 H24         7.3770   -3.1280   -1.8980 h1        1 MOL      0.137400
     56 H25         6.7090   -2.1900   -0.4440 h1        1 MOL      0.137400
     57 N5          5.9760   -0.2710   -2.4680 n         1 MOL     -0.076232
     58 C19         6.1280    0.9810   -3.1870 c3        1 MOL     -0.076876
     59 C20         6.6580    2.1400   -2.3860 c         1 MOL      0.574205
     60 O10         7.1300    3.1040   -3.0120 o         1 MOL     -0.596550
     61 C21         4.7230    1.4320   -3.7280 c3        1 MOL     -0.309986
     62 C22         3.6900    1.6100   -2.6610 c         1 MOL      0.883944
     63 O11         3.8830    1.3890   -1.4370 o         1 MOL     -0.728130
     64 O12         2.6010    2.0850   -3.0360 o         1 MOL     -0.728130
     65 H26         5.0680   -0.6620   -2.2640 hn        1 MOL      0.118855
     66 H27         6.8840    0.8920   -3.9700 h1        1 MOL      0.086268
     67 H28         4.4440    0.6680   -4.4530 hc        1 MOL      0.091098
     68 H29         4.8110    2.3820   -4.2640 hc        1 MOL      0.091098
     69 N6          6.7330    2.0530   -1.0640 n         1 MOL     -0.408922
     70 C23         7.2160    3.1660   -0.1950 c3        1 MOL      0.013287
     71 C24         6.1190    4.0320    0.4420 c         1 MOL      0.408635
     72 O13         6.3380    5.1470    0.8580 o         1 MOL     -0.588867
     73 H30         6.3650    1.1660   -0.7450 hn        1 MOL      0.255423
     74 H31         8.0560    3.6920   -0.6270 h1        1 MOL      0.060880
     75 H32         7.6690    2.7540    0.7050 h1        1 MOL      0.060880
     76 N7          4.9160    3.5310    0.3750 n         1 MOL     -0.098469
     77 C25         3.6940    4.2250    0.8150 c3        1 MOL     -0.119684
     78 C26         2.6980    3.2390    1.5530 c         1 MOL      0.297688
     79 O14         2.7840    2.0730    1.3310 o         1 MOL     -0.411538
     80 C27         2.9220    4.9150   -0.4080 c3        1 MOL      0.028489
     81 C28         3.5180    6.1630   -1.0800 c3        1 MOL     -0.158729
     82 C29         3.8940    7.3970   -0.2640 c         1 MOL      0.562926
     83 N8          5.2130    7.5530   -0.1340 n         1 MOL     -0.709388
     84 O15         3.0770    8.2790    0.1090 o         1 MOL     -0.572103
     85 H33         4.8340    2.6380   -0.0810 hn        1 MOL      0.137597
     86 H34         3.9270    5.1060    1.4130 h1        1 MOL      0.105898
     87 H35         1.9930    5.3010    0.0180 hc        1 MOL      0.048461
     88 H36         2.7990    4.2200   -1.2420 hc        1 MOL      0.048461
     89 H37         2.8140    6.5010   -1.8340 hc        1 MOL      0.062882
     90 H38         4.4010    5.8140   -1.6170 hc        1 MOL      0.062882
     91 H39         5.7690    6.8540   -0.6050 hn        1 MOL      0.341456
     92 H40         5.6050    8.4080    0.2420 hn        1 MOL      0.341456
     93 N9          1.6890    3.7560    2.2760 n         1 MOL     -0.321557
     94 C30         0.4730    3.0030    2.5550 c3        1 MOL      0.003729
     95 C31        -0.7320    3.4020    1.7320 c         1 MOL      0.492515
     96 O16        -1.0720    4.5880    1.7500 o         1 MOL     -0.570825
     97 C32         0.1590    3.0090    4.1190 c3        1 MOL      0.252010
     98 C33        -1.0160    2.1170    4.3880 c3        1 MOL     -0.309743
     99 C34         1.2470    2.4220    5.0180 c3        1 MOL     -0.309743
    100 H41         1.6320    4.7520    2.4410 hn        1 MOL      0.263524
    101 H42         0.6670    1.9630    2.2830 h1        1 MOL      0.137547
    102 H43        -0.0320    4.0200    4.4630 hc        1 MOL     -0.046717
    103 H44        -0.8460    1.0580    4.2100 hc        1 MOL      0.065978
    104 H45        -1.1870    2.1910    5.4610 hc        1 MOL      0.065978
    105 H46        -1.8820    2.4080    3.7910 hc        1 MOL      0.065978
    106 H47         1.4490    1.4370    4.5890 hc        1 MOL      0.065978
    107 H48         2.1010    3.0880    4.9440 hc        1 MOL      0.065978
    108 H49         0.9630    2.2130    6.0550 hc        1 MOL      0.065978
    109 N10        -1.3730    2.4600    1.0000 n         1 MOL     -0.248571
    110 C35        -2.6130    2.6120    0.1920 c3        1 MOL      0.027896
    111 C36        -3.9480    2.6070    0.9760 c         1 MOL      0.576525
    112 O17        -3.9960    2.0160    2.0400 o         1 MOL     -0.451932
    113 C37        -2.5710    1.5060   -0.8480 c3        1 MOL      0.089515
    114 C38        -3.4690    1.7270   -2.0200 c         1 MOL      0.574403
    115 N11        -3.7290    0.6840   -2.8120 n         1 MOL     -0.720993
    116 O18        -3.9130    2.7980   -2.2360 o         1 MOL     -0.537546
    117 H50        -0.9120    1.5590    0.9980 hn        1 MOL      0.061687
    118 H51        -2.6140    3.5580   -0.3380 h1        1 MOL      0.024727
    119 H52        -2.9080    0.5750   -0.3860 hc        1 MOL      0.027883
    120 H53        -1.5880    1.4110   -1.3050 hc        1 MOL      0.027883
    121 H54        -3.1060   -0.1140   -2.8050 hn        1 MOL      0.357909
    122 H55        -4.4090    0.7740   -3.5450 hn        1 MOL      0.357909
    123 N12        -5.0490    3.0530    0.3720 n         1 MOL     -0.576981
    124 C39        -6.4570    2.7180    0.8600 c3        1 MOL      0.190723
    125 C40        -6.6830    1.1270    0.8710 c         1 MOL      0.326919
    126 O19        -7.2190    0.6390    1.8810 o         1 MOL     -0.544289
    127 C41        -7.5830    3.3680    0.0280 c3        1 MOL      0.100539
    128 C42        -7.8580    2.9270   -1.3610 ca        1 MOL      0.005667
    129 C43        -8.9620    2.0140   -1.6290 ca        1 MOL     -0.223282
    130 C44        -7.0060    3.3150   -2.3960 ca        1 MOL     -0.223282
    131 C45        -9.1020    1.5640   -2.8970 ca        1 MOL     -0.201492
    132 C46        -7.1790    2.8000   -3.6660 ca        1 MOL     -0.201492
    133 C47        -8.2300    1.9170   -3.9300 ca        1 MOL      0.242755
    134 O20        -8.4050    1.3350   -5.1430 oh        1 MOL     -0.459381
    135 H56        -4.9290    3.5100   -0.5240 hn        1 MOL      0.282962
    136 H57        -6.5610    3.1350    1.8660 h1        1 MOL      0.051760
    137 H58        -7.5870    4.4400    0.2120 hc        1 MOL     -0.024184
    138 H59        -8.4860    3.1110    0.5920 hc        1 MOL     -0.024184
    139 H60        -9.6730    1.7260   -0.8650 ha        1 MOL      0.153396
    140 H61        -6.2890    4.1020   -2.1990 ha        1 MOL      0.153396
    141 H62        -9.9000    0.8890   -3.1590 ha        1 MOL      0.143801
    142 H63        -6.5410    3.1730   -4.4520 ha        1 MOL      0.143801
    143 H64        -9.3120    1.0210   -5.2380 ho        1 MOL      0.363384
    144 N13        -6.1540    0.3650   -0.0960 n         1 MOL     -0.034698
    145 C48        -6.1980   -1.0650   -0.0330 c3        1 MOL     -0.188855
    146 C49        -5.2190   -1.8110    0.9500 c         1 MOL      0.442406
    147 O21        -5.1950   -3.0240    0.9480 o         1 MOL     -0.542802
    148 C50        -6.1490   -1.6340   -1.4140 c3        1 MOL      0.274849
    149 C51        -7.0780   -1.0800   -2.4630 c3        1 MOL     -0.427038
    150 C52        -7.0230   -1.9180   -3.7900 c         1 MOL      0.809464
    151 O22        -6.1500   -1.6690   -4.6230 o         1 MOL     -0.742924
    152 O23        -7.6940   -2.9440   -4.0300 o         1 MOL     -0.742924
    153 H65        -5.6020    0.8320   -0.7940 hn        1 MOL      0.245563
    154 H66        -7.1570   -1.4540    0.3260 h1        1 MOL      0.111047
    155 H67        -6.2800   -2.7100   -1.3160 hc        1 MOL     -0.016479
    156 H68        -5.1400   -1.4460   -1.7880 hc        1 MOL     -0.016479
    157 H69        -6.9500   -0.0090   -2.6110 hc        1 MOL      0.034710
    158 H70        -8.0960   -1.1690   -2.0880 hc        1 MOL      0.034710
    159 N14        -4.4360   -1.0730    1.7400 n         1 MOL     -0.039291
    160 C53        -3.6600   -1.6610    2.8840 c3        1 MOL     -0.190103
    161 C54        -3.9320   -0.9890    4.2230 c         1 MOL      0.440303
    162 O24        -3.4360   -1.4530    5.2350 o         1 MOL     -0.556127
    163 C55        -2.1410   -1.3350    2.6010 c3        1 MOL     -0.021296
    164 C56        -1.5770   -1.8980    1.3220 c3        1 MOL     -0.010814
    165 C57        -0.2390   -1.2500    1.0130 c         1 MOL      0.537674
    166 O25         0.1150   -0.1770    1.5830 o         1 MOL     -0.678043
    167 O26         0.5190   -1.8320    0.1940 o         1 MOL     -0.678043
    168 H71        -4.4270   -0.0650    1.6480 hn        1 MOL     -0.197668
    169 H72        -3.8530   -2.7240    3.0060 h1        1 MOL      0.151042
    170 H73        -1.5720   -1.8620    3.3720 hc        1 MOL      0.116286
    171 H74        -1.9920   -0.2570    2.5720 hc        1 MOL      0.116286
    172 H75        -2.2350   -1.6880    0.4750 hc        1 MOL      0.018957
    173 H76        -1.4930   -2.9840    1.3540 hc        1 MOL      0.018957
    174 N15        -4.7890   -0.0050    4.3580 n         1 MOL     -0.112583
    175 C58        -5.3000    0.6210    5.5970 c3        1 MOL     -0.248211
    176 H77        -6.1220    1.2930    5.3520 h1        1 MOL      0.092839
    177 H78        -5.6560   -0.1550    6.2760 h1        1 MOL      0.092839
    178 H79        -4.5010    1.1850    6.0760 h1        1 MOL      0.092839
    179 H80        -5.3380    0.2450    3.5400 hn        1 MOL      0.216086
    180 Ca1         2.5530   -0.2490    0.2910 Ca        1 MOL      1.750656
    181 O27         5.3430    0.1990    1.3530 oh        1 MOL     -0.858610
    182 H81         5.3810    0.8180    2.0890 ho        1 MOL      0.412772
    183 H82         6.0370   -0.4370    1.5400 ho        1 MOL      0.412772
    184 O28         0.8510    0.9180   -1.4110 oh        1 MOL     -0.858610
    185 O29         2.9650   -0.4210    3.0250 oh        1 MOL     -0.858610
    186 H83         1.4350    1.4450   -1.9550 ho        1 MOL      0.412772
    187 H84         2.0870   -0.5830    3.3770 ho        1 MOL      0.412772
    188 H85         0.5350    0.2320   -1.9990 ho        1 MOL      0.412772
    189 H86         3.5400   -0.5220    3.7870 ho        1 MOL      0.412772
@<TRIPOS>BOND
     1    1    2 1   
     2    1    4 1   
     3    1    5 1   
     4    1    6 1   
     5    2    3 2   
     6    2    7 1   
     7    7    8 1   
     8    7   15 1   
     9    8    9 1   
    10    8   11 1   
    11    8   16 1   
    12    9   10 2   
    13    9   19 1   
    14   11   12 1   
    15   11   17 1   
    16   11   18 1   
    17   12   13 1   
    18   12   14 1   
    19   19   20 1   
    20   19   27 1   
    21   20   21 1   
    22   20   23 1   
    23   20   28 1   
    24   21   22 2   
    25   21   38 1   
    26   23   24 1   
    27   23   25 1   
    28   23   29 1   
    29   24   26 1   
    30   24   30 1   
    31   24   31 1   
    32   25   32 1   
    33   25   33 1   
    34   25   34 1   
    35   26   35 1   
    36   26   36 1   
    37   26   37 1   
    38   38   39 1   
    39   38   46 1   
    40   39   40 1   
    41   39   42 1   
    42   39   47 1   
    43   40   41 2   
    44   40   50 1   
    45   42   43 1   
    46   42   48 1   
    47   42   49 1   
    48   43   44 1   
    49   43   45 1   
    50   50   51 1   
    51   50   54 1   
    52   51   52 1   
    53   51   55 1   
    54   51   56 1   
    55   52   53 2   
    56   52   57 1   
    57   57   58 1   
    58   57   65 1   
    59   58   59 1   
    60   58   61 1   
    61   58   66 1   
    62   59   60 2   
    63   59   69 1   
    64   61   62 1   
    65   61   67 1   
    66   61   68 1   
    67   62   63 1   
    68   62   64 1   
    69   69   70 1   
    70   69   73 1   
    71   70   71 1   
    72   70   74 1   
    73   70   75 1   
    74   71   72 2   
    75   71   76 1   
    76   76   77 1   
    77   76   85 1   
    78   77   78 1   
    79   77   80 1   
    80   77   86 1   
    81   78   79 2   
    82   78   93 1   
    83   80   81 1   
    84   80   87 1   
    85   80   88 1   
    86   81   82 1   
    87   81   89 1   
    88   81   90 1   
    89   82   83 1   
    90   82   84 2   
    91   83   91 1   
    92   83   92 1   
    93   93   94 1   
    94   93  100 1   
    95   94   95 1   
    96   94   97 1   
    97   94  101 1   
    98   95   96 2   
    99   95  109 1   
   100   97   98 1   
   101   97   99 1   
   102   97  102 1   
   103   98  103 1   
   104   98  104 1   
   105   98  105 1   
   106   99  106 1   
   107   99  107 1   
   108   99  108 1   
   109  109  110 1   
   110  109  117 1   
   111  110  111 1   
   112  110  113 1   
   113  110  118 1   
   114  111  112 2   
   115  111  123 1   
   116  113  114 1   
   117  113  119 1   
   118  113  120 1   
   119  114  115 1   
   120  114  116 2   
   121  115  121 1   
   122  115  122 1   
   123  123  124 1   
   124  123  135 1   
   125  124  125 1   
   126  124  127 1   
   127  124  136 1   
   128  125  126 2   
   129  125  144 1   
   130  127  128 1   
   131  127  137 1   
   132  127  138 1   
   133  128  129 ar  
   134  128  130 ar  
   135  129  131 ar  
   136  129  139 1   
   137  130  132 ar  
   138  130  140 1   
   139  131  133 ar  
   140  131  141 1   
   141  132  133 ar  
   142  132  142 1   
   143  133  134 1   
   144  134  143 1   
   145  144  145 1   
   146  144  153 1   
   147  145  146 1   
   148  145  148 1   
   149  145  154 1   
   150  146  147 2   
   151  146  159 1   
   152  148  149 1   
   153  148  155 1   
   154  148  156 1   
   155  149  150 1   
   156  149  157 1   
   157  149  158 1   
   158  150  151 1   
   159  150  152 1   
   160  159  160 1   
   161  159  168 1   
   162  160  161 1   
   163  160  163 1   
   164  160  169 1   
   165  161  162 2   
   166  161  174 1   
   167  163  164 1   
   168  163  170 1   
   169  163  171 1   
   170  164  165 1   
   171  164  172 1   
   172  164  173 1   
   173  165  166 1   
   174  165  167 1   
   175  174  175 1   
   176  174  179 1   
   177  175  176 1   
   178  175  177 1   
   179  175  178 1   
   180  181  182 1   
   181  181  183 1   
   182  184  186 1   
   183  184  188 1   
   184  185  187 1   
   185  185  189 1   
@<TRIPOS>SUBSTRUCTURE
     1 MOL         1 TEMP              0 ****  ****    0 ROOT
