@<TRIPOS>MOLECULE
MOL
  179   176     1     0     0
SMALL
resp


@<TRIPOS>ATOM
      1 C1          2.5480    1.3140    5.6520 c3        1 MOL     -0.303108
      2 C2          1.8680    1.3440    4.3010 c         1 MOL      0.723326
      3 O1          2.5830    1.1100    3.3280 o         1 MOL     -0.582448
      4 H1          2.7140    2.3350    5.9970 hc        1 MOL      0.078745
      5 H2          1.9140    0.7880    6.3660 hc        1 MOL      0.078745
      6 H3          3.5050    0.7990    5.5660 hc        1 MOL      0.078745
      7 N1          0.5140    1.5530    4.2650 n         1 MOL     -0.609191
      8 C3         -0.1990    1.6260    2.9680 c3        1 MOL     -0.012340
      9 C4         -0.1450    3.0270    2.3510 c         1 MOL      0.565605
     10 O2         -1.0330    3.8380    2.4870 o         1 MOL     -0.465086
     11 C5         -1.7180    1.1970    3.2650 c3        1 MOL     -0.119927
     12 C6         -2.6280    1.2540    2.0290 c         1 MOL      0.659928
     13 O3         -3.8800    0.9230    2.0990 o         1 MOL     -0.692093
     14 O4         -2.0870    1.4440    0.9280 o         1 MOL     -0.692093
     15 H4         -0.0520    1.5440    5.0940 hn        1 MOL      0.340978
     16 H5          0.1860    0.8310    2.3320 h1        1 MOL      0.070774
     17 H6         -2.2340    1.9010    3.9140 hc        1 MOL      0.055739
     18 H7         -1.7430    0.2250    3.7490 hc        1 MOL      0.055739
     19 N2          0.9610    3.1940    1.6490 n         1 MOL     -0.294879
     20 C7          1.3230    4.5450    0.9890 c3        1 MOL     -0.192678
     21 C8          0.2070    5.3000    0.2560 c         1 MOL      0.578893
     22 O5          0.0330    6.5100    0.4450 o         1 MOL     -0.553100
     23 C9          2.5260    4.2320    0.0490 c3        1 MOL     -0.031380
     24 C10         3.5960    5.2910   -0.0340 c3        1 MOL     -0.272929
     25 C11         4.8160    5.0900   -0.9020 c3        1 MOL      0.057434
     26 C12         5.9100    6.0600   -0.5800 c3        1 MOL     -0.143265
     27 N3          7.0450    5.8990   -1.4800 n4        1 MOL     -0.126697
     28 H8          1.6170    2.4510    1.4670 hn        1 MOL      0.217393
     29 H9          1.7370    5.1420    1.8020 h1        1 MOL      0.125135
     30 H10         2.2850    3.7990   -0.9230 hc        1 MOL      0.105930
     31 H11         3.0260    3.3240    0.3920 hc        1 MOL      0.105930
     32 H12         3.9270    5.3870    1.0030 hc        1 MOL      0.095178
     33 H13         3.1150    6.2330   -0.2960 hc        1 MOL      0.095178
     34 H14         4.6180    5.0680   -1.9770 hc        1 MOL      0.040334
     35 H15         5.1640    4.0850   -0.6520 hc        1 MOL      0.040334
     36 H16         6.3040    5.9340    0.4300 hx        1 MOL      0.128377
     37 H17         5.5240    7.0400   -0.8490 hx        1 MOL      0.128377
     38 H18         7.3080    4.9240   -1.4420 hn        1 MOL      0.272230
     39 H19         6.9480    6.1350   -2.4600 hn        1 MOL      0.272230
     40 H20         7.8520    6.4220   -1.1530 hn        1 MOL      0.272230
     41 N4         -0.5530    4.6440   -0.6320 n         1 MOL     -0.370307
     42 C13        -1.7130    5.3630   -1.2950 c3        1 MOL     -0.013583
     43 C14        -2.9280    5.4280   -0.3050 c         1 MOL      0.493315
     44 O6         -3.7810    6.2680   -0.3540 o         1 MOL     -0.546838
     45 C15        -2.0820    4.8420   -2.7280 c3        1 MOL     -0.285742
     46 C16        -2.1530    3.3350   -2.8380 c         1 MOL      0.763341
     47 O7         -2.3110    2.8530   -3.9570 o         1 MOL     -0.732576
     48 O8         -2.1130    2.6570   -1.8030 o         1 MOL     -0.732576
     49 H21        -0.4350    3.6430   -0.7840 hn        1 MOL      0.287215
     50 H22        -1.4040    6.3930   -1.4810 h1        1 MOL      0.097405
     51 H23        -1.3930    5.2960   -3.4390 hc        1 MOL      0.102300
     52 H24        -3.0600    5.2710   -2.9090 hc        1 MOL      0.102300
     53 N5         -3.0520    4.4430    0.6110 n         1 MOL      0.039072
     54 C17        -4.2640    4.1800    1.3240 c3        1 MOL     -0.029300
     55 C18        -5.3490    3.5330    0.3870 c         1 MOL      0.469387
     56 O9         -6.4660    4.0590    0.2750 o         1 MOL     -0.546424
     57 H25        -2.2970    3.7770    0.6320 hn        1 MOL     -0.190324
     58 H26        -4.7190    4.9800    1.9080 h1        1 MOL      0.062221
     59 H27        -4.0680    3.4450    2.1030 h1        1 MOL      0.062221
     60 N6         -5.0380    2.4460   -0.3700 n         1 MOL     -0.312084
     61 C19        -5.9960    1.7370   -1.2390 c3        1 MOL      0.033959
     62 C20        -6.6620    0.5100   -0.5230 c         1 MOL      0.241156
     63 O10        -7.4760   -0.2430   -1.1320 o         1 MOL     -0.509906
     64 C21        -5.5170    1.4420   -2.6390 c3        1 MOL     -0.212686
     65 C22        -4.6130    0.2910   -2.7810 c         1 MOL      0.679955
     66 N7         -4.5000   -0.3630   -3.8680 n         1 MOL     -0.739979
     67 O11        -3.8430   -0.0020   -1.8350 o         1 MOL     -0.621061
     68 H28        -4.0870    2.1030   -0.3980 hn        1 MOL      0.325268
     69 H29        -6.8520    2.3920   -1.3960 h1        1 MOL      0.119201
     70 H30        -4.9450    2.2630   -3.0730 hc        1 MOL      0.099589
     71 H31        -6.4370    1.2860   -3.2130 hc        1 MOL      0.099589
     72 H32        -5.2600   -0.2880   -4.5280 hn        1 MOL      0.359602
     73 H33        -3.8120   -1.1030   -3.9140 hn        1 MOL      0.359602
     74 N8         -6.2190    0.1410    0.6650 n         1 MOL     -0.030803
     75 C23        -6.7390   -0.9830    1.4270 c3        1 MOL     -0.206373
     76 C24        -5.7210   -2.1700    1.6130 c         1 MOL      0.515067
     77 O12        -6.0240   -3.1800    2.2770 o         1 MOL     -0.554751
     78 H34        -5.4230    0.6640    1.0000 hn        1 MOL      0.160895
     79 H35        -7.6200   -1.4420    0.9850 h1        1 MOL      0.123921
     80 H36        -7.1070   -0.5340    2.3470 h1        1 MOL      0.123921
     81 N9         -4.5430   -2.0490    0.9640 n         1 MOL     -0.148307
     82 C25        -3.5820   -3.1120    1.0400 c3        1 MOL      0.157467
     83 C26        -2.1710   -2.5960    1.0830 c         1 MOL      0.585159
     84 O13        -1.9780   -1.4970    0.5550 o         1 MOL     -0.571890
     85 C27        -3.6350   -4.1100   -0.1840 c3        1 MOL      0.018026
     86 C28        -5.0710   -4.4090   -0.6490 ca        1 MOL     -0.037040
     87 C29        -5.6150   -3.6360   -1.6600 ca        1 MOL     -0.138628
     88 C30        -5.8550   -5.3600    0.0040 ca        1 MOL     -0.138628
     89 C31        -6.9870   -3.7100   -2.0120 ca        1 MOL     -0.323383
     90 C32        -7.2040   -5.6050   -0.4040 ca        1 MOL     -0.323383
     91 C33        -7.7870   -4.7340   -1.3880 ca        1 MOL      0.399043
     92 O14        -9.0910   -4.8240   -1.6400 oh        1 MOL     -0.471109
     93 H37        -4.1900   -1.1500    0.6550 hn        1 MOL      0.075585
     94 H38        -3.7020   -3.6700    1.9740 h1        1 MOL      0.002609
     95 H39        -3.1850   -5.0440    0.1460 hc        1 MOL     -0.012287
     96 H40        -3.0870   -3.5740   -0.9680 hc        1 MOL     -0.012287
     97 H41        -5.0380   -2.8520   -2.1290 ha        1 MOL      0.145902
     98 H42        -5.4110   -5.9050    0.8250 ha        1 MOL      0.145902
     99 H43        -7.3720   -3.0190   -2.7450 ha        1 MOL      0.166226
    100 H44        -7.7990   -6.3370    0.1320 ha        1 MOL      0.166226
    101 H45        -9.4230   -5.6070   -1.2020 ho        1 MOL      0.355697
    102 N10        -1.1910   -3.4060    1.5880 n         1 MOL     -0.591425
    103 C34         0.2380   -3.0440    1.7830 c3        1 MOL     -0.024618
    104 C35         0.9870   -3.9960    0.8740 c         1 MOL      0.504432
    105 O15         0.8910   -5.2310    0.9660 o         1 MOL     -0.554686
    106 C36         0.6620   -3.2760    3.2690 c3        1 MOL      0.227473
    107 C37        -0.1890   -2.4210    4.2580 c3        1 MOL      0.327609
    108 C38         2.1440   -3.0420    3.4930 c3        1 MOL     -0.349609
    109 C39        -0.0680   -2.8810    5.7580 c3        1 MOL     -0.271561
    110 H46        -1.4290   -4.3040    1.9650 hn        1 MOL      0.328277
    111 H47         0.3180   -1.9790    1.5890 h1        1 MOL      0.134976
    112 H48         0.3540   -4.2780    3.5730 hc        1 MOL     -0.014217
    113 H49        -1.2350   -2.5240    3.9690 hc        1 MOL     -0.096039
    114 H50         0.1070   -1.3770    4.1040 hc        1 MOL     -0.096039
    115 H51         2.4520   -2.0420    3.1650 hc        1 MOL      0.073489
    116 H52         2.4220   -3.3510    4.4940 hc        1 MOL      0.073489
    117 H53         2.7090   -3.7940    2.9370 hc        1 MOL      0.073489
    118 H54        -0.3730   -3.9300    5.8470 hc        1 MOL      0.054385
    119 H55         0.9670   -2.7280    6.0730 hc        1 MOL      0.054385
    120 H56        -0.5860   -2.1500    6.3810 hc        1 MOL      0.054385
    121 N11         1.8560   -3.3640    0.1050 n         1 MOL     -0.315128
    122 C40         2.6340   -3.9790   -1.0460 c3        1 MOL     -0.044411
    123 C41         4.1200   -3.7080   -0.9140 c         1 MOL      0.643145
    124 O16         4.6160   -2.7410   -0.2500 o         1 MOL     -0.598084
    125 C42         2.1260   -3.5050   -2.3840 c3        1 MOL      0.142892
    126 O17         2.2420   -2.1470   -2.6130 oh        1 MOL     -0.619339
    127 H57         1.7060   -2.3660    0.1460 hn        1 MOL      0.231912
    128 H58         2.5850   -5.0680   -1.0880 h1        1 MOL      0.070171
    129 H59         1.0810   -3.7640   -2.5470 h1        1 MOL      0.021988
    130 H60         2.7080   -4.1060   -3.0780 h1        1 MOL      0.021988
    131 H61         1.8360   -1.6350   -1.9050 ho        1 MOL      0.517453
    132 N12         4.9570   -4.5060   -1.5020 n         1 MOL     -0.511195
    133 C43         6.4080   -4.7060   -1.0840 c3        1 MOL      0.142115
    134 C44         7.3110   -3.4560   -1.2960 c         1 MOL      0.518575
    135 O18         8.0680   -3.1840   -0.3970 o         1 MOL     -0.539691
    136 C45         6.9650   -5.9210   -1.9060 c3        1 MOL     -0.325531
    137 H62         4.6200   -5.2070   -2.1470 hn        1 MOL      0.309493
    138 H63         6.5310   -4.9840   -0.0320 h1        1 MOL      0.104313
    139 H64         6.8830   -5.7540   -2.9840 hc        1 MOL      0.097522
    140 H65         8.0380   -5.9550   -1.7020 hc        1 MOL      0.097522
    141 H66         6.4700   -6.8780   -1.7480 hc        1 MOL      0.097522
    142 N13         7.1340   -2.6400   -2.3050 n         1 MOL     -0.411307
    143 C46         7.8670   -1.3410   -2.3600 c3        1 MOL      0.112844
    144 C47         7.2780   -0.2310   -1.4560 c         1 MOL      0.359437
    145 O19         7.9900    0.7320   -1.1180 o         1 MOL     -0.509640
    146 C48         7.9540   -0.8790   -3.7930 c3        1 MOL     -0.238213
    147 H67         6.6540   -2.9670   -3.1290 hn        1 MOL      0.266652
    148 H68         8.9070   -1.5240   -2.0800 h1        1 MOL      0.106175
    149 H69         8.4020    0.1240   -3.8150 hc        1 MOL      0.067156
    150 H70         8.4940   -1.5200   -4.4910 hc        1 MOL      0.067156
    151 H71         6.9200   -0.8040   -4.1130 hc        1 MOL      0.067156
    152 N14         6.0030   -0.3940   -1.0160 n         1 MOL     -0.069579
    153 C49         5.4600    0.4510    0.0220 c3        1 MOL     -0.414163
    154 C50         6.0920    0.1940    1.3470 c         1 MOL      0.607608
    155 O20         6.5890    1.0970    2.0190 o         1 MOL     -0.547053
    156 C51         3.9520    0.3620    0.1500 c3        1 MOL      0.045036
    157 C52         3.2440    0.7920   -1.1330 c3        1 MOL      0.050528
    158 C53         1.7460    0.6380   -0.9200 c         1 MOL      0.743103
    159 O21         1.1800   -0.4380   -0.7250 o         1 MOL     -0.780957
    160 O22         0.9630    1.6560   -0.9520 o         1 MOL     -0.780957
    161 H72         5.5030   -1.2130   -1.3200 hn        1 MOL      0.188418
    162 H73         5.7880    1.4730   -0.2000 h1        1 MOL      0.142753
    163 H74         3.7080    1.1070    0.9140 hc        1 MOL      0.028132
    164 H75         3.6780   -0.6430    0.4670 hc        1 MOL      0.028132
    165 H76         3.6000    0.1490   -1.9370 hc        1 MOL     -0.060859
    166 H77         3.4110    1.8150   -1.4530 hc        1 MOL     -0.060859
    167 N15         6.2180   -1.1060    1.6850 n         1 MOL     -0.210602
    168 C54         7.0150   -1.6410    2.8250 c3        1 MOL     -0.311084
    169 H78         6.8710   -1.0060    3.6990 h1        1 MOL      0.125302
    170 H79         6.6850   -2.6540    3.0540 h1        1 MOL      0.125302
    171 H80         8.0720   -1.6550    2.5560 h1        1 MOL      0.125302
    172 H81         5.7750   -1.7990    1.1100 hn        1 MOL      0.247848
    173 Ca1        -1.2720    0.3510   -1.2190 Ca        1 MOL      1.734612
    174 O23        -0.8550   -1.8860   -2.5130 oh        1 MOL     -0.892593
    175 H82        -0.1560   -2.0310   -3.1470 ho        1 MOL      0.423000
    176 H83        -1.4920   -2.5700   -2.7050 ho        1 MOL      0.423000
    177 O24        -0.2590    0.7480   -3.7750 oh        1 MOL     -0.892593
    178 H84        -0.8380    1.4930   -3.9600 ho        1 MOL      0.423000
    179 H85         0.4520    0.8390   -4.4090 ho        1 MOL      0.423000
@<TRIPOS>BOND
     1    1    2 1   
     2    1    4 1   
     3    1    5 1   
     4    1    6 1   
     5    2    3 2   
     6    2    7 1   
     7    7    8 1   
     8    7   15 1   
     9    8    9 1   
    10    8   11 1   
    11    8   16 1   
    12    9   10 2   
    13    9   19 1   
    14   11   12 1   
    15   11   17 1   
    16   11   18 1   
    17   12   13 1   
    18   12   14 1   
    19   19   20 1   
    20   19   28 1   
    21   20   21 1   
    22   20   23 1   
    23   20   29 1   
    24   21   22 2   
    25   21   41 1   
    26   23   24 1   
    27   23   30 1   
    28   23   31 1   
    29   24   25 1   
    30   24   32 1   
    31   24   33 1   
    32   25   26 1   
    33   25   34 1   
    34   25   35 1   
    35   26   27 1   
    36   26   36 1   
    37   26   37 1   
    38   27   38 1   
    39   27   39 1   
    40   27   40 1   
    41   41   42 1   
    42   41   49 1   
    43   42   43 1   
    44   42   45 1   
    45   42   50 1   
    46   43   44 2   
    47   43   53 1   
    48   45   46 1   
    49   45   51 1   
    50   45   52 1   
    51   46   47 1   
    52   46   48 1   
    53   53   54 1   
    54   53   57 1   
    55   54   55 1   
    56   54   58 1   
    57   54   59 1   
    58   55   56 2   
    59   55   60 1   
    60   60   61 1   
    61   60   68 1   
    62   61   62 1   
    63   61   64 1   
    64   61   69 1   
    65   62   63 2   
    66   62   74 1   
    67   64   65 1   
    68   64   70 1   
    69   64   71 1   
    70   65   66 1   
    71   65   67 2   
    72   66   72 1   
    73   66   73 1   
    74   74   75 1   
    75   74   78 1   
    76   75   76 1   
    77   75   79 1   
    78   75   80 1   
    79   76   77 2   
    80   76   81 1   
    81   81   82 1   
    82   81   93 1   
    83   82   83 1   
    84   82   85 1   
    85   82   94 1   
    86   83   84 2   
    87   83  102 1   
    88   85   86 1   
    89   85   95 1   
    90   85   96 1   
    91   86   87 ar  
    92   86   88 ar  
    93   87   89 ar  
    94   87   97 1   
    95   88   90 ar  
    96   88   98 1   
    97   89   91 ar  
    98   89   99 1   
    99   90   91 ar  
   100   90  100 1   
   101   91   92 1   
   102   92  101 1   
   103  102  103 1   
   104  102  110 1   
   105  103  104 1   
   106  103  106 1   
   107  103  111 1   
   108  104  105 2   
   109  104  121 1   
   110  106  107 1   
   111  106  108 1   
   112  106  112 1   
   113  107  109 1   
   114  107  113 1   
   115  107  114 1   
   116  108  115 1   
   117  108  116 1   
   118  108  117 1   
   119  109  118 1   
   120  109  119 1   
   121  109  120 1   
   122  121  122 1   
   123  121  127 1   
   124  122  123 1   
   125  122  125 1   
   126  122  128 1   
   127  123  124 2   
   128  123  132 1   
   129  125  126 1   
   130  125  129 1   
   131  125  130 1   
   132  126  131 1   
   133  132  133 1   
   134  132  137 1   
   135  133  134 1   
   136  133  136 1   
   137  133  138 1   
   138  134  135 2   
   139  134  142 1   
   140  136  139 1   
   141  136  140 1   
   142  136  141 1   
   143  142  143 1   
   144  142  147 1   
   145  143  144 1   
   146  143  146 1   
   147  143  148 1   
   148  144  145 2   
   149  144  152 1   
   150  146  149 1   
   151  146  150 1   
   152  146  151 1   
   153  152  153 1   
   154  152  161 1   
   155  153  154 1   
   156  153  156 1   
   157  153  162 1   
   158  154  155 2   
   159  154  167 1   
   160  156  157 1   
   161  156  163 1   
   162  156  164 1   
   163  157  158 1   
   164  157  165 1   
   165  157  166 1   
   166  158  159 1   
   167  158  160 1   
   168  167  168 1   
   169  167  172 1   
   170  168  169 1   
   171  168  170 1   
   172  168  171 1   
   173  174  175 1   
   174  174  176 1   
   175  177  178 1   
   176  177  179 1   
@<TRIPOS>SUBSTRUCTURE
     1 MOL         1 TEMP              0 ****  ****    0 ROOT
