@<TRIPOS>MOLECULE
MOL
  179   176     1     0     0
SMALL
resp


@<TRIPOS>ATOM
      1 C1          1.8940    1.8470    5.8890 c3        1 MOL     -0.310474
      2 C2          1.3270    1.9360    4.5070 c         1 MOL      0.715687
      3 O1          2.0380    1.8680    3.5100 o         1 MOL     -0.599738
      4 H1          1.2030    2.3070    6.5950 hc        1 MOL      0.083808
      5 H2          2.0420    0.8010    6.1560 hc        1 MOL      0.083808
      6 H3          2.8500    2.3700    5.9250 hc        1 MOL      0.083808
      7 N1         -0.0190    2.0920    4.3790 n         1 MOL     -0.588403
      8 C3         -0.7270    2.1940    3.0570 c3        1 MOL      0.023650
      9 C4         -0.4920    3.4520    2.2610 c         1 MOL      0.632681
     10 O2         -1.0720    4.5070    2.5910 o         1 MOL     -0.590446
     11 C5         -2.1980    1.8540    3.2590 c3        1 MOL     -0.072526
     12 C6         -2.9340    1.4370    2.0060 c         1 MOL      0.648627
     13 O3         -2.2540    1.2730    0.9380 o         1 MOL     -0.684792
     14 O4         -4.1800    1.3120    2.0970 o         1 MOL     -0.684792
     15 H4         -0.6450    2.0730    5.1700 hn        1 MOL      0.320341
     16 H5         -0.2560    1.4310    2.4310 h1        1 MOL      0.004426
     17 H6         -2.6860    2.7280    3.7030 hc        1 MOL      0.031215
     18 H7         -2.3040    0.9880    3.9030 hc        1 MOL      0.031215
     19 N2          0.3330    3.4200    1.2480 n         1 MOL     -0.189087
     20 C7          0.8220    4.6400    0.5490 c3        1 MOL     -0.425697
     21 C8         -0.2070    5.2350   -0.4120 c         1 MOL      0.650638
     22 O5         -0.2580    6.4210   -0.5810 o         1 MOL     -0.569357
     23 C9          2.2310    4.4050   -0.1100 c3        1 MOL     -0.013214
     24 C10         2.7830    5.7460   -0.5680 c3        1 MOL     -0.104662
     25 C11         4.1590    5.5070   -1.0630 c3        1 MOL      0.024802
     26 C12         4.7550    6.8590   -1.4380 c3        1 MOL      0.156493
     27 N3          6.1020    6.6480   -1.9020 n4        1 MOL     -0.381761
     28 H8          0.6810    2.5360    0.9340 hn        1 MOL      0.163208
     29 H9          0.9700    5.3680    1.3400 h1        1 MOL      0.181960
     30 H10         2.0460    3.6270   -0.8490 hc        1 MOL      0.117773
     31 H11         2.8870    3.9870    0.6520 hc        1 MOL      0.117773
     32 H12         2.8230    6.4450    0.2750 hc        1 MOL      0.056902
     33 H13         2.1570    6.1020   -1.3910 hc        1 MOL      0.056902
     34 H14         4.0200    4.8950   -1.9600 hc        1 MOL      0.006555
     35 H15         4.7490    4.9900   -0.3080 hc        1 MOL      0.006555
     36 H16         4.6030    7.6310   -0.6810 hx        1 MOL      0.049646
     37 H17         4.1900    7.2580   -2.2800 hx        1 MOL      0.049646
     38 H18         6.2160    5.7460   -2.3340 hn        1 MOL      0.327628
     39 H19         6.4110    7.3160   -2.5900 hn        1 MOL      0.327628
     40 H20         6.7690    6.6670   -1.1380 hn        1 MOL      0.327628
     41 N4         -1.2010    4.4440   -0.8610 n         1 MOL     -0.404654
     42 C13        -2.2620    4.9450   -1.7480 c3        1 MOL      0.060791
     43 C14        -3.6360    4.9610   -1.0890 c         1 MOL      0.449372
     44 O6         -4.5610    5.6150   -1.6530 o         1 MOL     -0.535846
     45 C15        -2.2740    4.3530   -3.1210 c3        1 MOL     -0.058641
     46 C16        -2.4300    2.7410   -3.1530 c         1 MOL      0.673225
     47 O7         -2.4530    2.0470   -2.0700 o         1 MOL     -0.697718
     48 O8         -2.4860    2.1570   -4.2930 o         1 MOL     -0.697718
     49 H21        -1.1020    3.4500   -0.7490 hn        1 MOL      0.236881
     50 H22        -2.0780    5.9920   -2.0070 h1        1 MOL      0.083309
     51 H23        -1.3050    4.5390   -3.5860 hc        1 MOL      0.017663
     52 H24        -3.0330    4.8110   -3.7460 hc        1 MOL      0.017663
     53 N5         -3.7360    4.3480    0.1180 n         1 MOL     -0.222264
     54 C17        -5.0590    4.2080    0.7640 c3        1 MOL     -0.297765
     55 C18        -5.9660    3.1220    0.2150 c         1 MOL      0.586808
     56 O9         -7.1350    3.2120    0.4340 o         1 MOL     -0.536326
     57 H25        -2.9380    3.9100    0.5460 hn        1 MOL      0.233234
     58 H26        -5.4470    5.2170    0.6480 h1        1 MOL      0.145507
     59 H27        -5.0180    3.9820    1.8220 h1        1 MOL      0.145507
     60 N6         -5.4460    2.1160   -0.5550 n         1 MOL     -0.184589
     61 C19        -6.3180    1.0870   -1.1080 c3        1 MOL     -0.048507
     62 C20        -6.9140    0.0010   -0.1360 c         1 MOL      0.372941
     63 O10        -8.0790   -0.4660   -0.2410 o         1 MOL     -0.537855
     64 C21        -5.5970    0.5430   -2.3030 c3        1 MOL     -0.165368
     65 C22        -4.8790   -0.7300   -2.1200 c         1 MOL      0.520240
     66 N7         -5.3990   -1.8490   -2.5520 n         1 MOL     -0.640897
     67 O11        -3.8390   -0.7370   -1.4690 o         1 MOL     -0.662036
     68 H28        -4.4660    2.0410   -0.7800 hn        1 MOL      0.091017
     69 H29        -7.1630    1.6660   -1.4980 h1        1 MOL      0.105317
     70 H30        -4.8600    1.2510   -2.6850 hc        1 MOL      0.093789
     71 H31        -6.3200    0.3910   -3.1140 hc        1 MOL      0.093789
     72 H32        -6.2450   -1.7740   -3.1130 hn        1 MOL      0.329714
     73 H33        -4.9430   -2.7320   -2.3880 hn        1 MOL      0.329714
     74 N8         -6.2020   -0.3700    0.9570 n         1 MOL     -0.074728
     75 C23        -6.5720   -1.4290    1.9710 c3        1 MOL     -0.250427
     76 C24        -5.4640   -2.4660    2.2610 c         1 MOL      0.609002
     77 O12        -5.7540   -3.3420    3.0520 o         1 MOL     -0.586347
     78 H34        -5.4090    0.2170    1.1480 hn        1 MOL      0.207946
     79 H35        -7.4830   -1.9560    1.6880 h1        1 MOL      0.127247
     80 H36        -6.6920   -0.9160    2.9300 h1        1 MOL      0.127247
     81 N9         -4.3420   -2.4310    1.6050 n         1 MOL     -0.387765
     82 C25        -3.3360   -3.4680    1.6690 c3        1 MOL     -0.001462
     83 C26        -1.9110   -2.9550    1.3470 c         1 MOL      0.912877
     84 O13        -1.8020   -1.9190    0.6900 o         1 MOL     -0.730711
     85 C27        -3.7360   -4.8320    1.1210 c3        1 MOL     -0.163390
     86 C28        -4.2350   -4.7490   -0.3040 ca        1 MOL      0.098176
     87 C29        -3.3260   -4.6250   -1.3700 ca        1 MOL     -0.160469
     88 C30        -5.5820   -4.8150   -0.5950 ca        1 MOL     -0.160469
     89 C31        -3.7320   -4.7300   -2.6510 ca        1 MOL     -0.290261
     90 C32        -5.9860   -4.9970   -1.9250 ca        1 MOL     -0.290261
     91 C33        -5.0590   -5.0430   -2.9570 ca        1 MOL      0.397435
     92 O14        -5.4830   -5.3340   -4.1820 oh        1 MOL     -0.534040
     93 H37        -4.2130   -1.6440    0.9910 hn        1 MOL      0.278341
     94 H38        -3.2430   -3.7520    2.7160 h1        1 MOL      0.069276
     95 H39        -4.5280   -5.3740    1.6510 hc        1 MOL      0.073074
     96 H40        -2.9520   -5.5860    1.1930 hc        1 MOL      0.073074
     97 H41        -2.2570   -4.5400   -1.2490 ha        1 MOL      0.160211
     98 H42        -6.2910   -4.8700    0.2230 ha        1 MOL      0.160211
     99 H43        -2.9590   -4.7200   -3.4080 ha        1 MOL      0.140421
    100 H44        -7.0520   -5.1450   -2.0930 ha        1 MOL      0.140421
    101 H45        -6.4370   -5.4370   -4.1920 ho        1 MOL      0.400895
    102 N10        -0.8850   -3.6460    1.9200 n         1 MOL     -0.880872
    103 C34         0.5270   -3.2740    1.8670 c3        1 MOL      0.349529
    104 C35         1.4250   -4.1150    0.9260 c         1 MOL      0.415584
    105 O15         1.3390   -5.3240    0.9220 o         1 MOL     -0.544938
    106 C36         0.9860   -3.3220    3.3040 c3        1 MOL      0.139819
    107 C37         0.0780   -2.9670    4.4420 c3        1 MOL     -0.112306
    108 C38         2.3790   -2.5810    3.4690 c3        1 MOL     -0.497366
    109 C39        -0.5520   -1.5600    4.2590 c3        1 MOL      0.191619
    110 H46        -1.1920   -4.4920    2.3700 hn        1 MOL      0.377425
    111 H47         0.5950   -2.2200    1.5840 h1        1 MOL     -0.011992
    112 H48         1.1770   -4.3880    3.4640 hc        1 MOL     -0.011894
    113 H49         0.6410   -2.9160    5.3720 hc        1 MOL      0.024213
    114 H50        -0.7510   -3.6410    4.6170 hc        1 MOL      0.024213
    115 H51         2.7340   -2.9130    4.4440 hc        1 MOL      0.119738
    116 H52         3.1600   -2.9190    2.7800 hc        1 MOL      0.119738
    117 H53         2.1490   -1.5220    3.5660 hc        1 MOL      0.119738
    118 H54         0.1030   -0.9650    3.6280 hc        1 MOL     -0.038562
    119 H55        -1.5140   -1.6920    3.7680 hc        1 MOL     -0.038562
    120 H56        -0.7860   -1.0750    5.2060 hc        1 MOL     -0.038562
    121 N11         2.3320   -3.4490    0.2250 n         1 MOL     -0.103641
    122 C40         3.3010   -4.1350   -0.6840 c3        1 MOL     -0.123068
    123 C41         4.8040   -3.7280   -0.4700 c         1 MOL      0.429998
    124 O16         5.1030   -2.9260    0.4380 o         1 MOL     -0.404105
    125 C42         2.8620   -3.6440   -2.0420 c3        1 MOL     -0.036347
    126 O17         2.8310   -2.2230   -2.2550 oh        1 MOL     -0.570449
    127 H57         2.3440   -2.4420    0.1420 hn        1 MOL      0.240012
    128 H58         3.2550   -5.2180   -0.6260 h1        1 MOL      0.101704
    129 H59         1.8510   -4.0180   -2.2020 h1        1 MOL      0.071314
    130 H60         3.4640   -4.0700   -2.8370 h1        1 MOL      0.071314
    131 H61         2.0930   -1.8590   -1.7690 ho        1 MOL      0.395315
    132 N12         5.7190   -4.3390   -1.2630 n         1 MOL     -0.374610
    133 C43         7.1550   -3.9640   -1.1830 c3        1 MOL      0.043009
    134 C44         7.4070   -2.4550   -1.3260 c         1 MOL      0.549526
    135 O18         8.1180   -1.8700   -0.5470 o         1 MOL     -0.520533
    136 C45         7.8580   -4.8240   -2.1670 c3        1 MOL     -0.322316
    137 H62         5.4200   -5.1080   -1.8550 hn        1 MOL      0.298167
    138 H63         7.4150   -4.3100   -0.1820 h1        1 MOL      0.096735
    139 H64         7.8840   -5.8660   -1.8510 hc        1 MOL      0.100214
    140 H65         7.2800   -4.9110   -3.0820 hc        1 MOL      0.100214
    141 H66         8.8780   -4.4900   -2.3630 hc        1 MOL      0.100214
    142 N13         6.9350   -1.8170   -2.3580 n         1 MOL     -0.423435
    143 C46         7.1770   -0.3940   -2.6810 c3        1 MOL      0.053638
    144 C47         6.9060    0.5420   -1.4360 c         1 MOL      0.458278
    145 O19         7.4130    1.6640   -1.3800 o         1 MOL     -0.567240
    146 C48         6.4180   -0.0320   -3.9570 c3        1 MOL     -0.314837
    147 H67         6.3520   -2.3500   -2.9940 hn        1 MOL      0.293607
    148 H68         8.2430   -0.2930   -2.8880 h1        1 MOL      0.094841
    149 H69         5.4060   -0.4010   -3.7840 hc        1 MOL      0.098232
    150 H70         6.4110    1.0590   -4.0170 hc        1 MOL      0.098232
    151 H71         6.7120   -0.5100   -4.8950 hc        1 MOL      0.098232
    152 N14         5.9550    0.1410   -0.5940 n         1 MOL     -0.125555
    153 C49         5.3940    0.7750    0.6100 c3        1 MOL     -0.083790
    154 C50         6.2210    0.4550    1.8750 c         1 MOL      0.652981
    155 O20         6.6380    1.3780    2.5070 o         1 MOL     -0.559249
    156 C51         3.9260    0.3380    0.7340 c3        1 MOL     -0.259492
    157 C52         3.0830    0.8390   -0.4230 c3        1 MOL      0.413481
    158 C53         1.6420    0.3820   -0.3420 c         1 MOL      0.910898
    159 O21         1.3170   -0.7550   -0.6440 o         1 MOL     -0.818792
    160 O22         0.7820    1.2260   -0.3180 o         1 MOL     -0.818792
    161 H72         5.6470   -0.8180   -0.6790 hn        1 MOL      0.136923
    162 H73         5.4830    1.8570    0.5940 h1        1 MOL      0.068765
    163 H74         3.5860    0.8170    1.6470 hc        1 MOL      0.044002
    164 H75         3.6780   -0.7170    0.8140 hc        1 MOL      0.044002
    165 H76         3.3730    0.4820   -1.4100 hc        1 MOL     -0.165226
    166 H77         3.0670    1.9250   -0.5600 hc        1 MOL     -0.165226
    167 N15         6.5670   -0.8180    2.1110 n         1 MOL     -0.311901
    168 C54         7.5620   -1.1670    3.1140 c3        1 MOL     -0.289805
    169 H78         8.5550   -1.1450    2.6640 h1        1 MOL      0.122171
    170 H79         7.5210   -0.4490    3.9330 h1        1 MOL      0.122171
    171 H80         7.3580   -2.1680    3.4970 h1        1 MOL      0.122171
    172 H81         6.2750   -1.4990    1.4280 hn        1 MOL      0.207520
    173 Ca1        -1.3520   -0.0050   -1.1130 Ca        1 MOL      1.770729
    174 O23        -0.0760    0.6480   -3.4640 oh        1 MOL     -0.853679
    175 H82        -0.3500    1.3790   -4.0360 ho        1 MOL      0.410680
    176 H83         0.5210    0.1300   -4.0110 ho        1 MOL      0.410680
    177 O24        -0.9440   -2.3340   -2.4260 oh        1 MOL     -0.853679
    178 H84        -1.0190   -3.2460   -2.6780 ho        1 MOL      0.410680
    179 H85        -1.0700   -1.8440   -3.2450 ho        1 MOL      0.410680
@<TRIPOS>BOND
     1    1    2 1   
     2    1    4 1   
     3    1    5 1   
     4    1    6 1   
     5    2    3 2   
     6    2    7 1   
     7    7    8 1   
     8    7   15 1   
     9    8    9 1   
    10    8   11 1   
    11    8   16 1   
    12    9   10 2   
    13    9   19 1   
    14   11   12 1   
    15   11   17 1   
    16   11   18 1   
    17   12   13 1   
    18   12   14 1   
    19   19   20 1   
    20   19   28 1   
    21   20   21 1   
    22   20   23 1   
    23   20   29 1   
    24   21   22 2   
    25   21   41 1   
    26   23   24 1   
    27   23   30 1   
    28   23   31 1   
    29   24   25 1   
    30   24   32 1   
    31   24   33 1   
    32   25   26 1   
    33   25   34 1   
    34   25   35 1   
    35   26   27 1   
    36   26   36 1   
    37   26   37 1   
    38   27   38 1   
    39   27   39 1   
    40   27   40 1   
    41   41   42 1   
    42   41   49 1   
    43   42   43 1   
    44   42   45 1   
    45   42   50 1   
    46   43   44 2   
    47   43   53 1   
    48   45   46 1   
    49   45   51 1   
    50   45   52 1   
    51   46   47 1   
    52   46   48 1   
    53   53   54 1   
    54   53   57 1   
    55   54   55 1   
    56   54   58 1   
    57   54   59 1   
    58   55   56 2   
    59   55   60 1   
    60   60   61 1   
    61   60   68 1   
    62   61   62 1   
    63   61   64 1   
    64   61   69 1   
    65   62   63 2   
    66   62   74 1   
    67   64   65 1   
    68   64   70 1   
    69   64   71 1   
    70   65   66 1   
    71   65   67 2   
    72   66   72 1   
    73   66   73 1   
    74   74   75 1   
    75   74   78 1   
    76   75   76 1   
    77   75   79 1   
    78   75   80 1   
    79   76   77 2   
    80   76   81 1   
    81   81   82 1   
    82   81   93 1   
    83   82   83 1   
    84   82   85 1   
    85   82   94 1   
    86   83   84 2   
    87   83  102 1   
    88   85   86 1   
    89   85   95 1   
    90   85   96 1   
    91   86   87 ar  
    92   86   88 ar  
    93   87   89 ar  
    94   87   97 1   
    95   88   90 ar  
    96   88   98 1   
    97   89   91 ar  
    98   89   99 1   
    99   90   91 ar  
   100   90  100 1   
   101   91   92 1   
   102   92  101 1   
   103  102  103 1   
   104  102  110 1   
   105  103  104 1   
   106  103  106 1   
   107  103  111 1   
   108  104  105 2   
   109  104  121 1   
   110  106  107 1   
   111  106  108 1   
   112  106  112 1   
   113  107  109 1   
   114  107  113 1   
   115  107  114 1   
   116  108  115 1   
   117  108  116 1   
   118  108  117 1   
   119  109  118 1   
   120  109  119 1   
   121  109  120 1   
   122  121  122 1   
   123  121  127 1   
   124  122  123 1   
   125  122  125 1   
   126  122  128 1   
   127  123  124 2   
   128  123  132 1   
   129  125  126 1   
   130  125  129 1   
   131  125  130 1   
   132  126  131 1   
   133  132  133 1   
   134  132  137 1   
   135  133  134 1   
   136  133  136 1   
   137  133  138 1   
   138  134  135 2   
   139  134  142 1   
   140  136  139 1   
   141  136  140 1   
   142  136  141 1   
   143  142  143 1   
   144  142  147 1   
   145  143  144 1   
   146  143  146 1   
   147  143  148 1   
   148  144  145 2   
   149  144  152 1   
   150  146  149 1   
   151  146  150 1   
   152  146  151 1   
   153  152  153 1   
   154  152  161 1   
   155  153  154 1   
   156  153  156 1   
   157  153  162 1   
   158  154  155 2   
   159  154  167 1   
   160  156  157 1   
   161  156  163 1   
   162  156  164 1   
   163  157  158 1   
   164  157  165 1   
   165  157  166 1   
   166  158  159 1   
   167  158  160 1   
   168  167  168 1   
   169  167  172 1   
   170  168  169 1   
   171  168  170 1   
   172  168  171 1   
   173  174  175 1   
   174  174  176 1   
   175  177  178 1   
   176  177  179 1   
@<TRIPOS>SUBSTRUCTURE
     1 MOL         1 TEMP              0 ****  ****    0 ROOT
