@<TRIPOS>MOLECULE
MOL
  189   185     1     0     0
SMALL
resp


@<TRIPOS>ATOM
      1 C1         -0.0790    2.7380    5.9090 c3        1 MOL     -0.286641
      2 C2         -0.4800    2.6180    4.4230 c         1 MOL      0.624513
      3 O1          0.3770    2.7570    3.5930 o         1 MOL     -0.595604
      4 H1         -0.9570    2.5810    6.5360 hc        1 MOL      0.067209
      5 H2          0.6730    1.9850    6.1450 hc        1 MOL      0.067209
      6 H3          0.3280    3.7320    6.0980 hc        1 MOL      0.067209
      7 N1         -1.6920    2.2370    4.1550 n         1 MOL     -0.369414
      8 C3         -2.0870    1.9200    2.7950 c3        1 MOL     -0.121790
      9 C4         -2.6520    3.1700    2.1540 c         1 MOL      0.220203
     10 O2         -3.6950    3.7220    2.5280 o         1 MOL     -0.481793
     11 C5         -3.2550    0.9290    2.9540 c3        1 MOL     -0.096609
     12 C6         -3.9550    0.6570    1.6010 c         1 MOL      0.824095
     13 O3         -3.3570    0.7620    0.4760 o         1 MOL     -0.697611
     14 O4         -5.0700    0.1560    1.6760 o         1 MOL     -0.697611
     15 H4         -2.3750    2.0610    4.8830 hn        1 MOL      0.299347
     16 H5         -1.2200    1.5340    2.2560 h1        1 MOL      0.124045
     17 H6         -4.0120    1.2980    3.6540 hc        1 MOL      0.035330
     18 H7         -3.0310   -0.0120    3.4490 hc        1 MOL      0.035330
     19 N2         -2.0750    3.6180    0.9950 n         1 MOL     -0.024249
     20 C7         -2.4690    4.8700    0.3170 c3        1 MOL      0.001965
     21 C8         -3.3720    4.7390   -0.9420 c         1 MOL      0.524181
     22 O5         -3.9060    5.7930   -1.2900 o         1 MOL     -0.592339
     23 C9         -1.1910    5.6430    0.0280 c3        1 MOL     -0.280202
     24 C10        -0.4140    5.9510    1.3630 c3        1 MOL      0.100258
     25 C11         0.7650    6.9090    1.1250 c3        1 MOL     -0.121980
     26 C12         1.4690    7.4600    2.3490 c3        1 MOL     -0.044315
     27 N3          0.5950    7.7430    3.5120 n4        1 MOL     -0.287143
     28 H8         -1.4170    3.0000    0.5550 hn        1 MOL      0.114164
     29 H9         -3.1260    5.3730    1.0350 h1        1 MOL      0.062016
     30 H10        -1.3670    6.5260   -0.5950 hc        1 MOL      0.101493
     31 H11        -0.4880    5.0600   -0.5590 hc        1 MOL      0.101493
     32 H12         0.0730    5.0760    1.8060 hc        1 MOL      0.026908
     33 H13        -1.1400    6.3070    2.0940 hc        1 MOL      0.026908
     34 H14         0.3920    7.7750    0.5750 hc        1 MOL      0.055853
     35 H15         1.5550    6.3180    0.6640 hc        1 MOL      0.055853
     36 H16         1.9150    8.4130    2.0690 hx        1 MOL      0.113681
     37 H17         2.2770    6.7720    2.5670 hx        1 MOL      0.113681
     38 H18        -0.1020    7.0610    3.7850 hn        1 MOL      0.302534
     39 H19         1.1050    8.0700    4.3170 hn        1 MOL      0.302534
     40 H20        -0.0020    8.5390    3.3520 hn        1 MOL      0.302534
     41 N4         -3.7140    3.6070   -1.5160 n         1 MOL     -0.258457
     42 C13        -4.6970    3.5010   -2.6060 c3        1 MOL     -0.013448
     43 C14        -5.9540    2.6130   -2.1830 c         1 MOL      0.476366
     44 O6         -6.7970    2.4930   -3.0160 o         1 MOL     -0.476393
     45 C15        -4.0140    3.0950   -3.9000 c3        1 MOL     -0.248733
     46 C16        -2.9700    1.9710   -3.7090 c         1 MOL      0.789999
     47 O7         -1.8160    2.1220   -4.1910 o         1 MOL     -0.739764
     48 O8         -3.2200    0.9540   -2.9940 o         1 MOL     -0.739764
     49 H21        -3.3490    2.7410   -1.1500 hn        1 MOL      0.173280
     50 H22        -5.1310    4.4940   -2.7180 h1        1 MOL      0.110102
     51 H23        -3.6440    4.0490   -4.2770 hc        1 MOL      0.068556
     52 H24        -4.7370    2.7450   -4.6350 hc        1 MOL      0.068556
     53 N5         -5.9460    2.2530   -0.9190 n         1 MOL     -0.345828
     54 C17        -7.1450    1.6760   -0.3420 c3        1 MOL     -0.094163
     55 C18        -7.5900    0.4300   -0.9900 c         1 MOL      0.417265
     56 O9         -8.7990    0.2950   -1.3040 o         1 MOL     -0.570772
     57 H25        -5.1250    2.3300   -0.3380 hn        1 MOL      0.260658
     58 H26        -7.9700    2.3830   -0.3750 h1        1 MOL      0.087122
     59 H27        -6.8620    1.4390    0.6790 h1        1 MOL      0.087122
     60 N6         -6.6670   -0.4790   -1.1280 n         1 MOL     -0.016269
     61 C19        -6.9920   -1.7860   -1.7370 c3        1 MOL     -0.036741
     62 C20        -7.0290   -2.9360   -0.7210 c         1 MOL      0.373182
     63 O10        -7.3710   -4.1090   -1.0690 o         1 MOL     -0.535597
     64 C21        -5.9970   -2.0910   -2.9220 c3        1 MOL     -0.237057
     65 C22        -4.5160   -2.0590   -2.6360 c         1 MOL      0.792233
     66 O11        -3.7380   -2.4170   -3.5690 o         1 MOL     -0.727835
     67 O12        -4.0820   -1.7870   -1.4910 o         1 MOL     -0.727835
     68 H28        -5.7700   -0.3400   -0.6770 hn        1 MOL     -0.006928
     69 H29        -7.9630   -1.7910   -2.2210 h1        1 MOL      0.117421
     70 H30        -6.2180   -1.4290   -3.7580 hc        1 MOL      0.082264
     71 H31        -6.1370   -3.1250   -3.2340 hc        1 MOL      0.082264
     72 N7         -6.6100   -2.6540    0.4860 n         1 MOL     -0.276571
     73 C23        -6.4950   -3.6920    1.4970 c3        1 MOL     -0.085411
     74 C24        -5.0580   -4.3350    1.6120 c         1 MOL      0.547425
     75 O13        -4.9910   -5.3750    2.2460 o         1 MOL     -0.589351
     76 H32        -6.2590   -1.7250    0.6860 hn        1 MOL      0.275355
     77 H33        -7.2130   -4.5050    1.3370 h1        1 MOL      0.090845
     78 H34        -6.7300   -3.2320    2.4520 h1        1 MOL      0.090845
     79 N8         -4.0320   -3.8960    0.9080 n         1 MOL     -0.484205
     80 C25        -2.6320   -4.4160    0.9510 c3        1 MOL     -0.016553
     81 C26        -1.5450   -3.3500    1.1230 c         1 MOL      0.864237
     82 O14        -1.6910   -2.2310    0.6630 o         1 MOL     -0.794450
     83 C27        -2.3070   -5.3880   -0.2640 c3        1 MOL      0.425490
     84 C28        -2.3270   -6.8030    0.1810 c3        1 MOL     -0.550844
     85 O15        -3.1380   -5.1880   -1.3560 oh        1 MOL     -0.591645
     86 H35        -4.3520   -3.1890    0.2580 hn        1 MOL      0.370603
     87 H36        -2.5450   -4.9680    1.8840 h1        1 MOL      0.071638
     88 H37        -1.2890   -5.1290   -0.5700 h1        1 MOL      0.023387
     89 H38        -4.0470   -5.3330   -1.1010 ho        1 MOL      0.414984
     90 H39        -1.7410   -6.9950    1.0770 hc        1 MOL      0.130801
     91 H40        -3.3270   -7.1990    0.3920 hc        1 MOL      0.130801
     92 H41        -1.9150   -7.4110   -0.6220 hc        1 MOL      0.130801
     93 N9         -0.4910   -3.6820    1.8340 n         1 MOL     -0.797084
     94 C29         0.7310   -2.8150    2.0280 c3        1 MOL      0.219925
     95 C30         1.8670   -3.4890    1.3670 c         1 MOL      0.447602
     96 O16         2.2670   -4.5800    1.7380 o         1 MOL     -0.555421
     97 C31         0.9130   -2.5340    3.5810 c3        1 MOL      0.252174
     98 C32        -0.3460   -2.1660    4.4180 c3        1 MOL      0.097346
     99 C33         1.8610   -1.3360    3.7620 c3        1 MOL     -0.754881
    100 C34        -0.1170   -2.2400    5.9930 c3        1 MOL     -0.312708
    101 H42        -0.5360   -4.5220    2.3910 hn        1 MOL      0.319249
    102 H43         0.4610   -1.9130    1.4920 h1        1 MOL      0.045704
    103 H44         1.4420   -3.3830    4.0120 hc        1 MOL     -0.022960
    104 H45        -1.1670   -2.8650    4.2840 hc        1 MOL      0.012190
    105 H46        -0.7060   -1.1750    4.1270 hc        1 MOL      0.012190
    106 H47         2.2000   -1.3180    4.7990 hc        1 MOL      0.186856
    107 H48         2.6900   -1.5110    3.0650 hc        1 MOL      0.186856
    108 H49         1.4220   -0.3770    3.4560 hc        1 MOL      0.186856
    109 H50         0.5400   -1.4310    6.3160 hc        1 MOL      0.077811
    110 H51        -1.0760   -2.1550    6.5050 hc        1 MOL      0.077811
    111 H52         0.2780   -3.1920    6.3530 hc        1 MOL      0.077811
    112 N10         2.4790   -2.8440    0.3940 n         1 MOL     -0.201898
    113 C35         3.7740   -3.1720   -0.3190 c3        1 MOL     -0.040246
    114 C36         5.0000   -2.7810    0.4850 c         1 MOL      0.401838
    115 O17         4.8960   -1.9210    1.3510 o         1 MOL     -0.336777
    116 C37         3.6660   -2.5540   -1.7150 c3        1 MOL      0.040565
    117 C38         2.3660   -2.8920   -2.4450 c3        1 MOL     -0.254215
    118 O18         3.8330   -1.1520   -1.5400 oh        1 MOL     -0.491992
    119 H53         2.0430   -1.9690    0.1500 hn        1 MOL      0.259146
    120 H54         3.8470   -4.2430   -0.5060 h1        1 MOL      0.085193
    121 H55         4.5000   -2.8920   -2.3210 h1        1 MOL      0.063109
    122 H56         3.2160   -0.7410   -2.1530 ho        1 MOL      0.404391
    123 H57         1.5380   -2.3040   -2.0430 hc        1 MOL      0.089649
    124 H58         2.4600   -2.7560   -3.5240 hc        1 MOL      0.089649
    125 H59         2.2010   -3.9560   -2.2980 hc        1 MOL      0.089649
    126 N11         6.1390   -3.2290    0.0450 n         1 MOL     -0.332494
    127 C39         7.4570   -2.6150    0.5180 c3        1 MOL     -0.132029
    128 C40         7.5130   -1.1550    0.2190 c         1 MOL      0.412824
    129 O19         8.0740   -0.3730    0.9670 o         1 MOL     -0.476072
    130 C41         8.6300   -3.2620   -0.1630 c3        1 MOL      0.272856
    131 C42         8.9060   -4.6900    0.3880 c3        1 MOL     -0.391310
    132 O20         8.3870   -3.4660   -1.5270 oh        1 MOL     -0.682285
    133 H60         6.2290   -3.9660   -0.6480 hn        1 MOL      0.306833
    134 H61         7.6140   -2.6490    1.5910 h1        1 MOL      0.150234
    135 H62         9.5130   -2.6370   -0.0290 h1        1 MOL      0.065641
    136 H63         9.0630   -3.9660   -1.9870 ho        1 MOL      0.440665
    137 H64         8.0990   -5.3460    0.0550 hc        1 MOL      0.112553
    138 H65         9.8460   -5.0490   -0.0330 hc        1 MOL      0.112553
    139 H66         9.1000   -4.6610    1.4590 hc        1 MOL      0.112553
    140 N12         6.8880   -0.7230   -0.8930 n         1 MOL     -0.200032
    141 C43         6.9750    0.6840   -1.3680 c3        1 MOL     -0.073356
    142 C44         6.2960    1.6370   -0.3840 c         1 MOL      0.293016
    143 O21         6.8920    2.4880    0.2970 o         1 MOL     -0.453942
    144 C45         6.3860    0.7890   -2.7540 c3        1 MOL     -0.140109
    145 C46         7.0210    1.8610   -3.5790 c3        1 MOL      0.112536
    146 C47         6.5370    1.7190   -5.0460 c3        1 MOL      0.020179
    147 C48         6.9660    2.8960   -5.8840 c3        1 MOL     -0.141104
    148 N13         8.4410    2.7180   -6.1080 n4        1 MOL     -0.358632
    149 H67         6.3760   -1.3880   -1.4530 hn        1 MOL      0.208480
    150 H68         8.0330    0.9560   -1.3500 h1        1 MOL      0.103097
    151 H69         5.3110    0.9510   -2.6950 hc        1 MOL      0.058606
    152 H70         6.5430   -0.1160   -3.3410 hc        1 MOL      0.058606
    153 H71         8.1080    1.7890   -3.6970 hc        1 MOL     -0.005139
    154 H72         6.7190    2.8320   -3.1740 hc        1 MOL     -0.005139
    155 H73         5.4510    1.7140   -5.0660 hc        1 MOL      0.038100
    156 H74         6.8990    0.7850   -5.4830 hc        1 MOL      0.038100
    157 H75         6.6770    3.8350   -5.4150 hx        1 MOL      0.151713
    158 H76         6.4930    2.7740   -6.8590 hx        1 MOL      0.151713
    159 H77         8.8470    2.4490   -5.2310 hn        1 MOL      0.318205
    160 H78         8.7110    2.0780   -6.8300 hn        1 MOL      0.318205
    161 H79         8.8720    3.6040   -6.3300 hn        1 MOL      0.318205
    162 N14         4.9860    1.3010   -0.1100 n         1 MOL     -0.042223
    163 C49         4.0830    1.9450    0.8210 c3        1 MOL     -0.096576
    164 C50         4.6380    1.8180    2.2030 c         1 MOL      0.317312
    165 O22         4.7360    2.7980    2.9840 o         1 MOL     -0.539602
    166 C51         2.6650    1.3200    0.8290 c3        1 MOL      0.299215
    167 C52         1.9500    1.7680   -0.3740 c3        1 MOL     -0.333707
    168 C53         0.5790    1.0880   -0.5270 c         1 MOL      0.743633
    169 O23         0.5390   -0.1570   -0.6450 o         1 MOL     -0.710893
    170 O24        -0.4370    1.7510   -0.6330 o         1 MOL     -0.710893
    171 H80         4.6700    0.4900   -0.6160 hn        1 MOL     -0.036667
    172 H81         4.0990    2.9800    0.4920 h1        1 MOL      0.111639
    173 H82         2.1300    1.5040    1.7640 hc        1 MOL     -0.015719
    174 H83         2.7090    0.2240    0.8140 hc        1 MOL     -0.015719
    175 H84         2.4720    1.4270   -1.2660 hc        1 MOL      0.071422
    176 H85         1.8770    2.8540   -0.3890 hc        1 MOL      0.071422
    177 N15         5.2740    0.6850    2.6210 n         1 MOL      0.082685
    178 C54         5.7400    0.4740    3.9870 c3        1 MOL     -0.272028
    179 H86         5.0680   -0.2160    4.4970 h1        1 MOL      0.093330
    180 H87         6.7450    0.0520    3.9670 h1        1 MOL      0.093330
    181 H88         5.7550    1.4260    4.5170 h1        1 MOL      0.093330
    182 H89         5.0920   -0.1560    2.0770 hn        1 MOL      0.054774
    183 Ca1        -1.8490   -0.4370   -1.4060 Ca        1 MOL      1.778722
    184 O25        -0.4880   -0.2950   -3.7170 oh        1 MOL     -0.878405
    185 H90        -0.7670    0.5560   -4.0340 ho        1 MOL      0.404644
    186 H91        -0.2220   -0.7750   -4.4970 ho        1 MOL      0.404644
    187 O26        -1.3530   -3.0590   -2.5780 oh        1 MOL     -0.878405
    188 H92        -2.1380   -2.8350   -3.0720 ho        1 MOL      0.404644
    189 H93        -0.9590   -3.7880   -3.0610 ho        1 MOL      0.404644
@<TRIPOS>BOND
     1    1    2 1   
     2    1    4 1   
     3    1    5 1   
     4    1    6 1   
     5    2    3 2   
     6    2    7 1   
     7    7    8 1   
     8    7   15 1   
     9    8    9 1   
    10    8   11 1   
    11    8   16 1   
    12    9   10 2   
    13    9   19 1   
    14   11   12 1   
    15   11   17 1   
    16   11   18 1   
    17   12   13 1   
    18   12   14 1   
    19   19   20 1   
    20   19   28 1   
    21   20   21 1   
    22   20   23 1   
    23   20   29 1   
    24   21   22 2   
    25   21   41 1   
    26   23   24 1   
    27   23   30 1   
    28   23   31 1   
    29   24   25 1   
    30   24   32 1   
    31   24   33 1   
    32   25   26 1   
    33   25   34 1   
    34   25   35 1   
    35   26   27 1   
    36   26   36 1   
    37   26   37 1   
    38   27   38 1   
    39   27   39 1   
    40   27   40 1   
    41   41   42 1   
    42   41   49 1   
    43   42   43 1   
    44   42   45 1   
    45   42   50 1   
    46   43   44 2   
    47   43   53 1   
    48   45   46 1   
    49   45   51 1   
    50   45   52 1   
    51   46   47 1   
    52   46   48 1   
    53   53   54 1   
    54   53   57 1   
    55   54   55 1   
    56   54   58 1   
    57   54   59 1   
    58   55   56 2   
    59   55   60 1   
    60   60   61 1   
    61   60   68 1   
    62   61   62 1   
    63   61   64 1   
    64   61   69 1   
    65   62   63 2   
    66   62   72 1   
    67   64   65 1   
    68   64   70 1   
    69   64   71 1   
    70   65   66 1   
    71   65   67 1   
    72   72   73 1   
    73   72   76 1   
    74   73   74 1   
    75   73   77 1   
    76   73   78 1   
    77   74   75 2   
    78   74   79 1   
    79   79   80 1   
    80   79   86 1   
    81   80   81 1   
    82   80   83 1   
    83   80   87 1   
    84   81   82 2   
    85   81   93 1   
    86   83   84 1   
    87   83   85 1   
    88   83   88 1   
    89   84   90 1   
    90   84   91 1   
    91   84   92 1   
    92   85   89 1   
    93   93   94 1   
    94   93  101 1   
    95   94   95 1   
    96   94   97 1   
    97   94  102 1   
    98   95   96 2   
    99   95  112 1   
   100   97   98 1   
   101   97   99 1   
   102   97  103 1   
   103   98  100 1   
   104   98  104 1   
   105   98  105 1   
   106   99  106 1   
   107   99  107 1   
   108   99  108 1   
   109  100  109 1   
   110  100  110 1   
   111  100  111 1   
   112  112  113 1   
   113  112  119 1   
   114  113  114 1   
   115  113  116 1   
   116  113  120 1   
   117  114  115 2   
   118  114  126 1   
   119  116  117 1   
   120  116  118 1   
   121  116  121 1   
   122  117  123 1   
   123  117  124 1   
   124  117  125 1   
   125  118  122 1   
   126  126  127 1   
   127  126  133 1   
   128  127  128 1   
   129  127  130 1   
   130  127  134 1   
   131  128  129 2   
   132  128  140 1   
   133  130  131 1   
   134  130  132 1   
   135  130  135 1   
   136  131  137 1   
   137  131  138 1   
   138  131  139 1   
   139  132  136 1   
   140  140  141 1   
   141  140  149 1   
   142  141  142 1   
   143  141  144 1   
   144  141  150 1   
   145  142  143 2   
   146  142  162 1   
   147  144  145 1   
   148  144  151 1   
   149  144  152 1   
   150  145  146 1   
   151  145  153 1   
   152  145  154 1   
   153  146  147 1   
   154  146  155 1   
   155  146  156 1   
   156  147  148 1   
   157  147  157 1   
   158  147  158 1   
   159  148  159 1   
   160  148  160 1   
   161  148  161 1   
   162  162  163 1   
   163  162  171 1   
   164  163  164 1   
   165  163  166 1   
   166  163  172 1   
   167  164  165 2   
   168  164  177 1   
   169  166  167 1   
   170  166  173 1   
   171  166  174 1   
   172  167  168 1   
   173  167  175 1   
   174  167  176 1   
   175  168  169 1   
   176  168  170 1   
   177  177  178 1   
   178  177  182 1   
   179  178  179 1   
   180  178  180 1   
   181  178  181 1   
   182  184  185 1   
   183  184  186 1   
   184  187  188 1   
   185  187  189 1   
@<TRIPOS>SUBSTRUCTURE
     1 MOL         1 TEMP              0 ****  ****    0 ROOT
