@<TRIPOS>MOLECULE
MOL
  189   185     1     0     0
SMALL
resp


@<TRIPOS>ATOM
      1 C1          0.0750   -3.1790    5.8520 c3        1 MOL     -0.470634
      2 C2          0.7290   -2.8440    4.5230 c         1 MOL      0.742499
      3 O1          0.5840   -1.7420    4.0270 o         1 MOL     -0.584022
      4 H1         -0.7130   -3.9150    5.6930 hc        1 MOL      0.124515
      5 H2          0.8230   -3.5870    6.5320 hc        1 MOL      0.124515
      6 H3         -0.3550   -2.2750    6.2830 hc        1 MOL      0.124515
      7 N1          1.4670   -3.7950    3.9120 n         1 MOL     -0.630359
      8 C3          2.1680   -3.5440    2.6280 c3        1 MOL      0.223318
      9 C4          2.1510   -4.8200    1.6990 c         1 MOL      0.315164
     10 O2          2.6240   -5.8730    2.1320 o         1 MOL     -0.557700
     11 C5          3.6520   -3.1000    2.9110 c3        1 MOL     -0.130251
     12 C6          4.5150   -2.9950    1.6320 c         1 MOL      0.574298
     13 O3          5.5750   -3.6680    1.5320 o         1 MOL     -0.612511
     14 O4          4.0660   -2.3550    0.6510 o         1 MOL     -0.612511
     15 H4          1.7830   -4.5970    4.4370 hn        1 MOL      0.327707
     16 H5          1.6510   -2.7800    2.0640 h1        1 MOL      0.035160
     17 H6          4.1340   -3.7190    3.6690 hc        1 MOL      0.013737
     18 H7          3.7030   -2.1720    3.4840 hc        1 MOL      0.013737
     19 N2          1.8260   -4.6630    0.4170 n         1 MOL      0.229650
     20 C7          1.9920   -5.6570   -0.6170 c3        1 MOL     -0.031074
     21 C8          3.0420   -5.3790   -1.6920 c         1 MOL      0.448756
     22 O5          3.5800   -6.3210   -2.3180 o         1 MOL     -0.602571
     23 C9          0.6220   -5.9950   -1.3340 c3        1 MOL      0.100798
     24 C10         0.1150   -4.8840   -2.1920 c3        1 MOL      0.180025
     25 C11        -0.4320   -6.5400   -0.3510 c3        1 MOL     -0.109127
     26 C12        -1.2590   -5.1280   -2.8090 c3        1 MOL     -0.510515
     27 H8          1.5590   -3.7460    0.0730 hn        1 MOL     -0.221464
     28 H9          2.3020   -6.5770   -0.1180 h1        1 MOL      0.047252
     29 H10         0.9050   -6.8430   -1.9670 hc        1 MOL     -0.034201
     30 H11         0.8100   -4.7650   -3.0320 hc        1 MOL      0.010437
     31 H12         0.2580   -3.9130   -1.7270 hc        1 MOL      0.010437
     32 H13        -0.0620   -7.3850    0.2260 hc        1 MOL      0.004375
     33 H14        -0.6220   -5.7460    0.3780 hc        1 MOL      0.004375
     34 H15        -1.3310   -6.8310   -0.8840 hc        1 MOL      0.004375
     35 H16        -1.9770   -4.9740   -2.0050 hc        1 MOL      0.126340
     36 H17        -1.3830   -4.2440   -3.4360 hc        1 MOL      0.126340
     37 H18        -1.2610   -6.0940   -3.3150 hc        1 MOL      0.126340
     38 N3          3.5010   -4.1660   -1.8650 n         1 MOL     -0.261158
     39 C13         4.3240   -3.7000   -3.0620 c3        1 MOL      0.006613
     40 C14         5.5170   -2.8620   -2.7080 c         1 MOL      0.390850
     41 O6          6.2700   -2.4620   -3.6220 o         1 MOL     -0.564831
     42 C15         3.4530   -3.0140   -4.0760 c3        1 MOL     -0.125304
     43 C16         2.6050   -1.8710   -3.4420 c         1 MOL      0.733814
     44 O7          2.8640   -1.4180   -2.2740 o         1 MOL     -0.701067
     45 O8          1.7290   -1.4040   -4.1330 o         1 MOL     -0.701067
     46 H19         3.4030   -3.4960   -1.1170 hn        1 MOL      0.245696
     47 H20         4.8060   -4.5810   -3.4660 h1        1 MOL      0.100224
     48 H21         2.7310   -3.8080   -4.2690 hc        1 MOL      0.020296
     49 H22         4.0300   -2.8360   -4.9710 hc        1 MOL      0.020296
     50 N4          5.8380   -2.5860   -1.4320 n         1 MOL     -0.140111
     51 C17         7.1310   -2.1940   -0.9060 c3        1 MOL     -0.175171
     52 C18         7.6980   -0.7980   -1.2600 c         1 MOL      0.458179
     53 O9          8.8830   -0.5170   -1.1430 o         1 MOL     -0.608538
     54 H23         5.1690   -2.7540   -0.6940 hn        1 MOL      0.108165
     55 H24         7.8160   -2.8600   -1.4330 h1        1 MOL      0.088878
     56 H25         7.1640   -2.3130    0.1730 h1        1 MOL      0.088878
     57 N5          6.8250    0.0590   -1.7180 n         1 MOL     -0.097429
     58 C19         7.0780    1.4540   -2.1250 c3        1 MOL     -0.042124
     59 C20         7.3860    2.3690   -0.9410 c         1 MOL      0.569585
     60 O10         8.1630    3.2860   -1.1530 o         1 MOL     -0.566055
     61 C21         5.9370    1.9940   -2.9560 c3        1 MOL     -0.341879
     62 C22         4.4970    1.8020   -2.3990 c         1 MOL      0.821327
     63 O11         4.3560    1.0770   -1.4150 o         1 MOL     -0.703233
     64 O12         3.4950    2.3490   -2.8790 o         1 MOL     -0.703233
     65 H26         5.8390   -0.0820   -1.5230 hn        1 MOL      0.132365
     66 H27         7.9580    1.4840   -2.7660 h1        1 MOL      0.099093
     67 H28         6.0210    1.5590   -3.9490 hc        1 MOL      0.089593
     68 H29         5.9860    3.0830   -3.0560 hc        1 MOL      0.089593
     69 N6          6.8880    2.1140    0.2840 n         1 MOL     -0.438036
     70 C23         7.1320    3.1150    1.3120 c3        1 MOL     -0.077337
     71 C24         5.9680    4.0710    1.5520 c         1 MOL      0.488640
     72 O13         6.1690    5.1080    2.1910 o         1 MOL     -0.613580
     73 H30         6.1760    1.4150    0.4240 hn        1 MOL      0.316442
     74 H31         7.9760    3.7740    1.1360 h1        1 MOL      0.084746
     75 H32         7.2500    2.6000    2.2700 h1        1 MOL      0.084746
     76 N7          4.7990    3.7960    0.9900 n         1 MOL     -0.244248
     77 C25         3.4920    4.4930    1.1450 c3        1 MOL      0.016454
     78 C26         2.4750    3.3880    1.4490 c         1 MOL      0.304719
     79 O14         2.6810    2.2650    0.9640 o         1 MOL     -0.305811
     80 C27         3.1400    5.1850   -0.1390 c3        1 MOL      0.032509
     81 C28         4.0980    6.4240   -0.4190 c3        1 MOL     -0.284879
     82 C29         3.5010    7.4090   -1.4340 c         1 MOL      0.700432
     83 N8          4.3290    8.3290   -1.9080 n         1 MOL     -0.839267
     84 O15         2.3190    7.4470   -1.7240 o         1 MOL     -0.568729
     85 H33         4.8250    2.9560    0.4270 hn        1 MOL      0.177005
     86 H34         3.5210    5.1720    1.9960 h1        1 MOL      0.068746
     87 H35         2.1040    5.5000   -0.0010 hc        1 MOL      0.034392
     88 H36         3.1380    4.5350   -1.0120 hc        1 MOL      0.034392
     89 H37         5.0560    6.0930   -0.8270 hc        1 MOL      0.103559
     90 H38         4.2680    6.9420    0.5190 hc        1 MOL      0.103559
     91 H39         5.2320    8.4410   -1.4730 hn        1 MOL      0.366459
     92 H40         3.9440    8.8200   -2.7010 hn        1 MOL      0.366459
     93 N9          1.3520    3.6540    2.1160 n         1 MOL     -0.452278
     94 C30         0.2130    2.7600    2.2850 c3        1 MOL      0.054853
     95 C31        -0.9710    3.2180    1.4010 c         1 MOL      0.705171
     96 O16        -1.2550    4.4150    1.4320 o         1 MOL     -0.598753
     97 C32        -0.1830    2.6750    3.8310 c3        1 MOL      0.282381
     98 C33        -0.6150    3.9060    4.5730 c3        1 MOL     -0.250577
     99 C34        -1.0780    1.4210    4.1750 c3        1 MOL     -0.250577
    100 H41         1.1750    4.6090    2.4050 hn        1 MOL      0.290334
    101 H42         0.5720    1.7850    1.9730 h1        1 MOL     -0.029620
    102 H43         0.7520    2.4110    4.3300 hc        1 MOL     -0.042381
    103 H44         0.1220    4.7010    4.5020 hc        1 MOL      0.041484
    104 H45        -1.5430    4.2360    4.0980 hc        1 MOL      0.041484
    105 H46        -0.7610    3.6250    5.6150 hc        1 MOL      0.041484
    106 H47        -0.9100    1.0060    5.1630 hc        1 MOL      0.041484
    107 H48        -2.1160    1.6520    3.9160 hc        1 MOL      0.041484
    108 H49        -0.8870    0.5770    3.5050 hc        1 MOL      0.041484
    109 N10        -1.5490    2.2430    0.6910 n         1 MOL     -0.636971
    110 C35        -2.7010    2.4850   -0.1980 c3        1 MOL      0.326499
    111 C36        -4.0100    2.2200    0.5960 c         1 MOL      0.036056
    112 O17        -3.8810    1.6510    1.6910 o         1 MOL     -0.258787
    113 C37        -2.5540    1.5830   -1.4270 c3        1 MOL     -0.286444
    114 C38        -3.6880    1.3140   -2.3620 c         1 MOL      0.686011
    115 N11        -3.9680    2.3100   -3.1890 n         1 MOL     -0.785372
    116 O18        -4.2880    0.3000   -2.4240 o         1 MOL     -0.505640
    117 H50        -1.2690    1.2830    0.8090 hn        1 MOL      0.425046
    118 H51        -2.6600    3.5230   -0.5020 h1        1 MOL      0.012575
    119 H52        -2.2250    0.5740   -1.2070 hc        1 MOL      0.096485
    120 H53        -1.6840    1.9550   -1.9850 hc        1 MOL      0.096485
    121 H54        -3.4610    3.1780   -3.1910 hn        1 MOL      0.343728
    122 H55        -4.6430    2.1570   -3.9260 hn        1 MOL      0.343728
    123 N12        -5.2120    2.6480    0.1640 n         1 MOL     -0.010421
    124 C39        -6.4230    2.4910    0.9120 c3        1 MOL     -0.000191
    125 C40        -6.7000    0.9680    0.9850 c         1 MOL      0.567690
    126 O19        -6.9390    0.4890    2.0600 o         1 MOL     -0.596227
    127 C41        -7.5890    3.4660    0.4290 c3        1 MOL     -0.191092
    128 C42        -8.1210    3.1250   -0.9360 ca        1 MOL      0.130693
    129 C43        -9.0370    2.0110   -1.0390 ca        1 MOL     -0.260078
    130 C44        -7.5310    3.7310   -2.0800 ca        1 MOL     -0.260078
    131 C45        -9.4130    1.6160   -2.3230 ca        1 MOL     -0.206795
    132 C46        -7.9750    3.2960   -3.3560 ca        1 MOL     -0.206795
    133 C47        -8.9020    2.3020   -3.5060 ca        1 MOL      0.322869
    134 O20        -9.3170    1.9750   -4.7840 oh        1 MOL     -0.591806
    135 H56        -5.2850    3.1850   -0.6830 hn        1 MOL      0.081505
    136 H57        -6.1810    2.7400    1.9520 h1        1 MOL      0.064913
    137 H58        -7.2910    4.5130    0.4980 hc        1 MOL      0.063966
    138 H59        -8.4670    3.3310    1.0660 hc        1 MOL      0.063966
    139 H60        -9.4100    1.5510   -0.1290 ha        1 MOL      0.166357
    140 H61        -6.7690    4.4880   -1.9590 ha        1 MOL      0.166357
    141 H62       -10.1530    0.8400   -2.4760 ha        1 MOL      0.137661
    142 H63        -7.4760    3.7180   -4.2100 ha        1 MOL      0.137661
    143 H64        -9.9920    1.3050   -4.8540 ho        1 MOL      0.442160
    144 N13        -6.5480    0.1540   -0.0900 n         1 MOL     -0.135288
    145 C48        -6.8300   -1.3470   -0.1170 c3        1 MOL     -0.192241
    146 C49        -5.8590   -2.2160    0.7370 c         1 MOL      0.469984
    147 O21        -6.1440   -3.3570    1.0000 o         1 MOL     -0.499299
    148 C50        -6.6680   -1.8510   -1.5670 c3        1 MOL      0.378080
    149 C51        -7.8060   -1.4590   -2.4630 c3        1 MOL     -0.410015
    150 C52        -8.9780   -2.4060   -2.3350 c         1 MOL      0.745171
    151 O22        -8.9790   -3.5260   -2.9530 o         1 MOL     -0.735638
    152 O23        -9.9360   -2.0330   -1.6600 o         1 MOL     -0.735638
    153 H65        -6.2140    0.5440   -0.9560 hn        1 MOL      0.137123
    154 H66        -7.8640   -1.5040    0.2140 h1        1 MOL      0.134510
    155 H67        -6.6760   -2.9280   -1.4290 hc        1 MOL     -0.061742
    156 H68        -5.6330   -1.6920   -1.8730 hc        1 MOL     -0.061742
    157 H69        -7.4410   -1.4780   -3.4920 hc        1 MOL      0.068084
    158 H70        -8.1240   -0.4750   -2.1370 hc        1 MOL      0.068084
    159 N14        -4.7120   -1.6290    1.1400 n         1 MOL     -0.217669
    160 C53        -3.8590   -2.0180    2.2430 c3        1 MOL      0.010210
    161 C54        -4.3970   -1.5090    3.5340 c         1 MOL      0.509080
    162 O24        -4.4860   -2.2850    4.4600 o         1 MOL     -0.594477
    163 C55        -2.4200   -1.5110    2.0840 c3        1 MOL     -0.135621
    164 C56        -1.5380   -2.3070    1.0940 c3        1 MOL      0.101898
    165 C57        -0.2750   -1.5070    0.7230 c         1 MOL      0.907815
    166 O25         0.6120   -2.1500    0.0850 o         1 MOL     -0.785825
    167 O26        -0.2150   -0.2660    0.7150 o         1 MOL     -0.785825
    168 H71        -4.3880   -0.8450    0.5880 hn        1 MOL      0.091017
    169 H72        -3.8180   -3.1010    2.2140 h1        1 MOL      0.048692
    170 H73        -1.8810   -1.4770    3.0240 hc        1 MOL      0.046498
    171 H74        -2.4890   -0.4780    1.7290 hc        1 MOL      0.046498
    172 H75        -2.0950   -2.5290    0.1770 hc        1 MOL     -0.014938
    173 H76        -1.2060   -3.2250    1.5910 hc        1 MOL     -0.014938
    174 N15        -4.7790   -0.2160    3.6660 n         1 MOL     -0.092779
    175 C58        -5.1490    0.5110    4.9180 c3        1 MOL     -0.172288
    176 H77        -5.6770   -0.1670    5.5890 h1        1 MOL      0.066948
    177 H78        -4.2460    0.8750    5.4080 h1        1 MOL      0.066948
    178 H79        -5.7950    1.3540    4.6730 h1        1 MOL      0.066948
    179 H80        -4.7690    0.3550    2.8350 hn        1 MOL      0.073250
    180 Ca1         2.6300   -0.2750   -0.0040 Ca        1 MOL      1.741238
    181 O27         2.2010   -0.1730    2.6320 oh        1 MOL     -0.905165
    182 H81         1.4100   -0.3920    3.1310 ho        1 MOL      0.422478
    183 H82         2.7740    0.2340    3.2710 ho        1 MOL      0.422478
    184 O28         1.2920    1.3360   -1.6450 oh        1 MOL     -0.905165
    185 H83         0.5770    1.1700   -2.2520 ho        1 MOL      0.422478
    186 H84         1.8560    1.9640   -2.0990 ho        1 MOL      0.422478
    187 O29         4.7470    0.5290    1.6450 oh        1 MOL     -0.905165
    188 H85         4.4960    0.7510    2.5330 ho        1 MOL      0.422478
    189 H86         5.4880   -0.0770    1.7420 ho        1 MOL      0.422478
@<TRIPOS>BOND
     1    1    2 1   
     2    1    4 1   
     3    1    5 1   
     4    1    6 1   
     5    2    3 2   
     6    2    7 1   
     7    7    8 1   
     8    7   15 1   
     9    8    9 1   
    10    8   11 1   
    11    8   16 1   
    12    9   10 2   
    13    9   19 1   
    14   11   12 1   
    15   11   17 1   
    16   11   18 1   
    17   12   13 1   
    18   12   14 1   
    19   19   20 1   
    20   19   27 1   
    21   20   21 1   
    22   20   23 1   
    23   20   28 1   
    24   21   22 2   
    25   21   38 1   
    26   23   24 1   
    27   23   25 1   
    28   23   29 1   
    29   24   26 1   
    30   24   30 1   
    31   24   31 1   
    32   25   32 1   
    33   25   33 1   
    34   25   34 1   
    35   26   35 1   
    36   26   36 1   
    37   26   37 1   
    38   38   39 1   
    39   38   46 1   
    40   39   40 1   
    41   39   42 1   
    42   39   47 1   
    43   40   41 2   
    44   40   50 1   
    45   42   43 1   
    46   42   48 1   
    47   42   49 1   
    48   43   44 1   
    49   43   45 1   
    50   50   51 1   
    51   50   54 1   
    52   51   52 1   
    53   51   55 1   
    54   51   56 1   
    55   52   53 2   
    56   52   57 1   
    57   57   58 1   
    58   57   65 1   
    59   58   59 1   
    60   58   61 1   
    61   58   66 1   
    62   59   60 2   
    63   59   69 1   
    64   61   62 1   
    65   61   67 1   
    66   61   68 1   
    67   62   63 1   
    68   62   64 1   
    69   69   70 1   
    70   69   73 1   
    71   70   71 1   
    72   70   74 1   
    73   70   75 1   
    74   71   72 2   
    75   71   76 1   
    76   76   77 1   
    77   76   85 1   
    78   77   78 1   
    79   77   80 1   
    80   77   86 1   
    81   78   79 2   
    82   78   93 1   
    83   80   81 1   
    84   80   87 1   
    85   80   88 1   
    86   81   82 1   
    87   81   89 1   
    88   81   90 1   
    89   82   83 1   
    90   82   84 2   
    91   83   91 1   
    92   83   92 1   
    93   93   94 1   
    94   93  100 1   
    95   94   95 1   
    96   94   97 1   
    97   94  101 1   
    98   95   96 2   
    99   95  109 1   
   100   97   98 1   
   101   97   99 1   
   102   97  102 1   
   103   98  103 1   
   104   98  104 1   
   105   98  105 1   
   106   99  106 1   
   107   99  107 1   
   108   99  108 1   
   109  109  110 1   
   110  109  117 1   
   111  110  111 1   
   112  110  113 1   
   113  110  118 1   
   114  111  112 2   
   115  111  123 1   
   116  113  114 1   
   117  113  119 1   
   118  113  120 1   
   119  114  115 1   
   120  114  116 2   
   121  115  121 1   
   122  115  122 1   
   123  123  124 1   
   124  123  135 1   
   125  124  125 1   
   126  124  127 1   
   127  124  136 1   
   128  125  126 2   
   129  125  144 1   
   130  127  128 1   
   131  127  137 1   
   132  127  138 1   
   133  128  129 ar  
   134  128  130 ar  
   135  129  131 ar  
   136  129  139 1   
   137  130  132 ar  
   138  130  140 1   
   139  131  133 ar  
   140  131  141 1   
   141  132  133 ar  
   142  132  142 1   
   143  133  134 1   
   144  134  143 1   
   145  144  145 1   
   146  144  153 1   
   147  145  146 1   
   148  145  148 1   
   149  145  154 1   
   150  146  147 2   
   151  146  159 1   
   152  148  149 1   
   153  148  155 1   
   154  148  156 1   
   155  149  150 1   
   156  149  157 1   
   157  149  158 1   
   158  150  151 1   
   159  150  152 1   
   160  159  160 1   
   161  159  168 1   
   162  160  161 1   
   163  160  163 1   
   164  160  169 1   
   165  161  162 2   
   166  161  174 1   
   167  163  164 1   
   168  163  170 1   
   169  163  171 1   
   170  164  165 1   
   171  164  172 1   
   172  164  173 1   
   173  165  166 1   
   174  165  167 1   
   175  174  175 1   
   176  174  179 1   
   177  175  176 1   
   178  175  177 1   
   179  175  178 1   
   180  181  182 1   
   181  181  183 1   
   182  184  185 1   
   183  184  186 1   
   184  187  188 1   
   185  187  189 1   
@<TRIPOS>SUBSTRUCTURE
     1 MOL         1 TEMP              0 ****  ****    0 ROOT
