@<TRIPOS>MOLECULE
MOL
  189   185     1     0     0
SMALL
resp


@<TRIPOS>ATOM
      1 C1         -0.2540    2.2260    6.0600 c3        1 MOL     -0.294223
      2 C2         -0.6190    1.7420    4.6610 c         1 MOL      0.642192
      3 O1          0.2760    1.6890    3.8450 o         1 MOL     -0.553556
      4 H1         -1.1510    2.2520    6.6800 hc        1 MOL      0.074673
      5 H2          0.4740    1.5460    6.5020 hc        1 MOL      0.074673
      6 H3          0.1740    3.2270    5.9990 hc        1 MOL      0.074673
      7 N1         -1.8880    1.3210    4.3860 n         1 MOL     -0.656166
      8 C3         -2.4190    1.4170    3.0160 c3        1 MOL      0.352184
      9 C4         -2.8030    2.8690    2.6050 c         1 MOL      0.315197
     10 O2         -3.5570    3.4730    3.3520 o         1 MOL     -0.551051
     11 C5         -3.5230    0.3960    2.7200 c3        1 MOL     -0.256292
     12 C6         -4.1970    0.6020    1.3080 c         1 MOL      0.726045
     13 O3         -3.5160    0.5000    0.2320 o         1 MOL     -0.638528
     14 O4         -5.4470    0.8160    1.3010 o         1 MOL     -0.638528
     15 H4         -2.6190    1.3410    5.0780 hn        1 MOL      0.353212
     16 H5         -1.7110    1.1560    2.2300 h1        1 MOL     -0.107695
     17 H6         -4.2770    0.6010    3.4840 hc        1 MOL      0.048409
     18 H7         -3.0720   -0.5660    2.9700 hc        1 MOL      0.048409
     19 N2         -2.2300    3.3320    1.5500 n         1 MOL     -0.021756
     20 C7         -2.3100    4.6980    1.0420 c3        1 MOL     -0.018699
     21 C8         -3.2160    4.9450   -0.1730 c         1 MOL      0.683788
     22 O5         -3.6840    6.0760   -0.3530 o         1 MOL     -0.596240
     23 C9         -0.9110    5.3270    0.9150 c3        1 MOL     -0.144902
     24 C10        -0.0170    5.4600    2.2090 c3        1 MOL      0.214751
     25 C11         1.2790    6.2180    1.8130 c3        1 MOL     -0.175318
     26 C12         2.1920    6.2800    3.0910 c3        1 MOL      0.030978
     27 N3          3.3900    7.2300    2.9100 n4        1 MOL     -0.255550
     28 H8         -1.7060    2.6720    0.9880 hn        1 MOL      0.221833
     29 H9         -2.8900    5.2260    1.8050 h1        1 MOL      0.045885
     30 H10        -1.0660    6.3590    0.5820 hc        1 MOL      0.019186
     31 H11        -0.3700    4.7440    0.1730 hc        1 MOL      0.019186
     32 H12         0.1820    4.4400    2.5320 hc        1 MOL     -0.015225
     33 H13        -0.5530    6.0150    2.9790 hc        1 MOL     -0.015225
     34 H14         0.9750    7.2480    1.6670 hc        1 MOL      0.067812
     35 H15         1.7580    5.7150    0.9750 hc        1 MOL      0.067812
     36 H16         2.6680    5.3160    3.2930 hx        1 MOL      0.096312
     37 H17         1.6470    6.7040    3.9300 hx        1 MOL      0.096312
     38 H18         3.8100    7.4870    3.7830 hn        1 MOL      0.289918
     39 H19         4.1100    6.7170    2.4120 hn        1 MOL      0.289918
     40 H20         3.1890    8.0510    2.3490 hn        1 MOL      0.289918
     41 N4         -3.5700    3.9440   -0.9400 n         1 MOL     -0.742585
     42 C13        -4.2130    4.0640   -2.2440 c3        1 MOL      0.415459
     43 C14        -5.4690    3.3000   -2.3940 c         1 MOL      0.307710
     44 O6         -6.0820    3.2310   -3.4090 o         1 MOL     -0.505552
     45 C15        -3.2390    3.8070   -3.3970 c3        1 MOL     -0.338643
     46 C16        -2.4330    2.4740   -3.2910 c         1 MOL      1.048982
     47 O7         -2.8350    1.5800   -2.5820 o         1 MOL     -0.854644
     48 O8         -1.2880    2.4190   -3.8320 o         1 MOL     -0.854644
     49 H21        -3.1820    3.0760   -0.6040 hn        1 MOL      0.321047
     50 H22        -4.5830    5.0810   -2.3800 h1        1 MOL      0.032803
     51 H23        -2.5670    4.6470   -3.2940 hc        1 MOL      0.040517
     52 H24        -3.7570    3.8070   -4.3570 hc        1 MOL      0.040517
     53 N5         -5.8030    2.4410   -1.3920 n         1 MOL      0.089586
     54 C17        -7.1450    1.8780   -1.3610 c3        1 MOL     -0.455175
     55 C18        -7.1210    0.5370   -1.9770 c         1 MOL      0.956810
     56 O9         -7.7730    0.3540   -2.9860 o         1 MOL     -0.632037
     57 H25        -5.1070    2.2350   -0.6860 hn        1 MOL      0.042282
     58 H26        -7.8870    2.4960   -1.8680 h1        1 MOL      0.115929
     59 H27        -7.4680    1.6650   -0.3460 h1        1 MOL      0.115929
     60 N6         -6.5160   -0.4290   -1.3010 n         1 MOL     -0.776019
     61 C19        -6.6400   -1.8990   -1.6720 c3        1 MOL      0.122042
     62 C20        -6.5500   -2.8100   -0.4260 c         1 MOL      0.457726
     63 O10        -6.6330   -3.9820   -0.5800 o         1 MOL     -0.516762
     64 C21        -5.5730   -2.2700   -2.7940 c3        1 MOL     -0.105728
     65 C22        -4.1940   -1.8490   -2.2660 c         1 MOL      0.607770
     66 O11        -3.8530   -2.1330   -1.0840 o         1 MOL     -0.670425
     67 O12        -3.3980   -1.2190   -3.0330 o         1 MOL     -0.670425
     68 H28        -6.0170   -0.1290   -0.4810 hn        1 MOL      0.384570
     69 H29        -7.6300   -2.0460   -2.0960 h1        1 MOL      0.066226
     70 H30        -5.9020   -1.8100   -3.7210 hc        1 MOL      0.051829
     71 H31        -5.6670   -3.3400   -2.9880 hc        1 MOL      0.051829
     72 N7         -6.4340   -2.2100    0.7680 n         1 MOL     -0.299944
     73 C23        -6.3780   -3.0410    2.0130 c3        1 MOL     -0.153196
     74 C24        -5.0600   -3.8080    2.1440 c         1 MOL      0.438006
     75 O13        -5.0470   -4.6850    3.0260 o         1 MOL     -0.580596
     76 H32        -6.2940   -1.2090    0.7600 hn        1 MOL      0.213448
     77 H33        -7.1820   -3.7890    2.0460 h1        1 MOL      0.116801
     78 H34        -6.5140   -2.3230    2.8210 h1        1 MOL      0.116801
     79 N8         -4.0570   -3.5680    1.4050 n         1 MOL      0.021812
     80 C25        -2.7810   -4.3190    1.4150 c3        1 MOL     -0.306410
     81 C26        -1.5750   -3.4670    1.1230 c         1 MOL      0.700012
     82 O14        -1.6430   -2.1990    0.9130 o         1 MOL     -0.699922
     83 C27        -2.8690   -5.4090    0.2870 c3        1 MOL      0.283185
     84 C28        -3.9420   -6.3950    0.5860 c3        1 MOL     -0.395680
     85 O15        -3.1080   -4.8320   -1.0290 oh        1 MOL     -0.544593
     86 H35        -4.1550   -2.7500    0.8270 hn        1 MOL      0.095559
     87 H36        -2.7090   -4.6820    2.4430 h1        1 MOL      0.150639
     88 H37        -1.9190   -5.9390    0.1920 h1        1 MOL      0.051595
     89 H38        -3.4890   -3.9840   -0.8230 ho        1 MOL      0.359143
     90 H39        -4.0480   -7.1140   -0.2190 hc        1 MOL      0.115601
     91 H40        -3.7320   -6.9440    1.4960 hc        1 MOL      0.115601
     92 H41        -4.8540   -5.8200    0.7200 hc        1 MOL      0.115601
     93 N9         -0.3420   -4.0660    1.0920 n         1 MOL     -0.607929
     94 C29         0.9040   -3.3600    1.3130 c3        1 MOL      0.304340
     95 C30         1.9360   -3.7100    0.2570 c         1 MOL      0.397419
     96 O16         2.2390   -4.8880    0.0750 o         1 MOL     -0.522044
     97 C31         1.3830   -3.6420    2.7610 c3        1 MOL      0.073712
     98 C32         0.3620   -3.3510    3.8270 c3        1 MOL      0.051335
     99 C33         2.8660   -3.2330    2.9690 c3        1 MOL     -0.088889
    100 C34         0.0520   -1.8360    4.0170 c3        1 MOL     -0.508207
    101 H42        -0.3480   -5.0710    1.0780 hn        1 MOL      0.277965
    102 H43         0.6700   -2.2940    1.2930 h1        1 MOL      0.078008
    103 H44         1.4530   -4.7370    2.7460 hc        1 MOL     -0.047122
    104 H45         0.8230   -3.6890    4.7580 hc        1 MOL      0.011070
    105 H46        -0.5520   -3.9440    3.7300 hc        1 MOL      0.011070
    106 H47         3.1680   -3.3360    4.0100 hc        1 MOL      0.007298
    107 H48         3.5300   -3.8700    2.3830 hc        1 MOL      0.007298
    108 H49         2.9750   -2.2070    2.6100 hc        1 MOL      0.007298
    109 H50         0.8170   -1.2430    4.5280 hc        1 MOL      0.163722
    110 H51        -0.0200   -1.3520    3.0520 hc        1 MOL      0.163722
    111 H52        -0.9210   -1.7830    4.4920 hc        1 MOL      0.163722
    112 N10         2.4150   -2.6930   -0.5090 n         1 MOL     -0.132423
    113 C35         3.5510   -2.7630   -1.3740 c3        1 MOL     -0.015568
    114 C36         4.9150   -2.4180   -0.8330 c         1 MOL      0.310282
    115 O17         4.9580   -1.8590    0.2590 o         1 MOL     -0.223437
    116 C37         3.2290   -1.8610   -2.6140 c3        1 MOL      0.218360
    117 C38         2.1730   -2.3220   -3.5330 c3        1 MOL     -0.452679
    118 O18         2.9770   -0.5240   -2.1830 oh        1 MOL     -0.746947
    119 H53         1.9870   -1.8020   -0.3670 hn        1 MOL      0.199084
    120 H54         3.6130   -3.8050   -1.6720 h1        1 MOL      0.050023
    121 H55         4.1340   -1.7770   -3.2120 h1        1 MOL      0.072373
    122 H56         2.1250   -0.4450   -1.7550 ho        1 MOL      0.425888
    123 H57         2.3630   -3.3090   -3.9640 hc        1 MOL      0.134310
    124 H58         1.2210   -2.3200   -2.9990 hc        1 MOL      0.134310
    125 H59         2.1260   -1.6530   -4.3900 hc        1 MOL      0.134310
    126 N11         6.0700   -2.6710   -1.5550 n         1 MOL     -0.294568
    127 C39         7.4450   -2.3320   -1.0650 c3        1 MOL     -0.275412
    128 C40         7.5770   -0.8850   -0.6900 c         1 MOL      0.515390
    129 O19         8.2990   -0.6060    0.2640 o         1 MOL     -0.508449
    130 C41         8.5390   -2.7700   -2.0170 c3        1 MOL      0.297835
    131 C42         8.6090   -4.2710   -2.0080 c3        1 MOL     -0.368113
    132 O20         8.3010   -2.2930   -3.3190 oh        1 MOL     -0.640805
    133 H60         5.8750   -3.0060   -2.4790 hn        1 MOL      0.264379
    134 H61         7.5730   -2.9900   -0.2080 h1        1 MOL      0.178731
    135 H62         9.4600   -2.3240   -1.6300 h1        1 MOL      0.069787
    136 H63         8.9390   -2.6150   -3.9580 ho        1 MOL      0.427706
    137 H64         9.5730   -4.6350   -2.3790 hc        1 MOL      0.107004
    138 H65         8.4990   -4.7780   -1.0420 hc        1 MOL      0.107004
    139 H66         7.8380   -4.6630   -2.6720 hc        1 MOL      0.107004
    140 N12         6.8770    0.0980   -1.3360 n         1 MOL     -0.273783
    141 C43         6.9490    1.5410   -0.9980 c3        1 MOL     -0.043065
    142 C44         6.1540    1.8770    0.2230 c         1 MOL      0.347695
    143 O21         6.4130    2.8590    0.9280 o         1 MOL     -0.529078
    144 C45         6.6590    2.4460   -2.1830 c3        1 MOL     -0.265927
    145 C46         5.2230    2.2720   -2.7150 c3        1 MOL      0.133859
    146 C47         4.7510    3.3590   -3.6980 c3        1 MOL     -0.176289
    147 C48         3.4270    2.8480   -4.2790 c3        1 MOL      0.105226
    148 N13         2.8050    3.8800   -5.2120 n4        1 MOL     -0.487496
    149 H67         6.3930   -0.1350   -2.1910 hn        1 MOL      0.202900
    150 H68         7.9830    1.7700   -0.7110 h1        1 MOL      0.135817
    151 H69         7.3980    2.3450   -2.9700 hc        1 MOL      0.095522
    152 H70         6.6680    3.4820   -1.8430 hc        1 MOL      0.095522
    153 H71         4.5170    2.2230   -1.8830 hc        1 MOL      0.042815
    154 H72         5.1820    1.3960   -3.3590 hc        1 MOL      0.042815
    155 H73         5.4760    3.5080   -4.4900 hc        1 MOL      0.051108
    156 H74         4.6010    4.2750   -3.1170 hc        1 MOL      0.051108
    157 H75         2.7460    2.6780   -3.4430 hx        1 MOL      0.098836
    158 H76         3.6900    1.9370   -4.8280 hx        1 MOL      0.098836
    159 H77         3.4680    4.0470   -5.9510 hn        1 MOL      0.361138
    160 H78         1.9860    3.5140   -5.6760 hn        1 MOL      0.361138
    161 H79         2.5710    4.7360   -4.7210 hn        1 MOL      0.361138
    162 N14         5.1930    1.0210    0.5500 n         1 MOL     -0.004941
    163 C49         4.3100    1.0950    1.7790 c3        1 MOL     -0.172559
    164 C50         5.0370    0.4560    2.9430 c         1 MOL      0.574426
    165 O22         5.1680    1.1130    3.9650 o         1 MOL     -0.575983
    166 C51         2.8950    0.5920    1.6110 c3        1 MOL      0.115736
    167 C52         2.1160    1.5140    0.6610 c3        1 MOL     -0.304411
    168 C53         0.7410    0.8360    0.3160 c         1 MOL      1.010373
    169 O23         0.8070   -0.3600   -0.0930 o         1 MOL     -0.858559
    170 O24        -0.3250    1.4930    0.2840 o         1 MOL     -0.858559
    171 H80         4.8780    0.3730   -0.1580 hn        1 MOL      0.131822
    172 H81         4.3920    2.1390    2.0750 h1        1 MOL      0.080456
    173 H82         2.4390    0.5470    2.5970 hc        1 MOL     -0.001030
    174 H83         3.0280   -0.3770    1.1350 hc        1 MOL     -0.001030
    175 H84         2.7050    1.6200   -0.2540 hc        1 MOL      0.050408
    176 H85         1.9410    2.4990    1.1020 hc        1 MOL      0.050408
    177 N15         5.5440   -0.7820    2.7870 n         1 MOL     -0.133783
    178 C54         6.4610   -1.5500    3.5880 c3        1 MOL     -0.462132
    179 H86         7.4840   -1.2560    3.3520 h1        1 MOL      0.159468
    180 H87         6.2640   -1.3650    4.6440 h1        1 MOL      0.159468
    181 H88         6.3310   -2.6110    3.3740 h1        1 MOL      0.159468
    182 H89         5.4640   -1.1030    1.8350 hn        1 MOL      0.093574
    183 Ca1        -1.6890   -0.4980   -1.2100 Ca        1 MOL      1.835212
    184 O25        -0.3520   -0.3430   -3.4140 oh        1 MOL     -0.859888
    185 H90        -0.0350   -0.7680   -4.2110 ho        1 MOL      0.389559
    186 H91        -0.4620    0.5750   -3.6670 ho        1 MOL      0.389559
    187 O26        -1.0160   -3.1260   -1.8100 oh        1 MOL     -0.859888
    188 H92        -0.3570   -3.4930   -2.3960 ho        1 MOL      0.389559
    189 H93        -1.7340   -3.7530   -1.8380 ho        1 MOL      0.389559
@<TRIPOS>BOND
     1    1    2 1   
     2    1    4 1   
     3    1    5 1   
     4    1    6 1   
     5    2    3 2   
     6    2    7 1   
     7    7    8 1   
     8    7   15 1   
     9    8    9 1   
    10    8   11 1   
    11    8   16 1   
    12    9   10 2   
    13    9   19 1   
    14   11   12 1   
    15   11   17 1   
    16   11   18 1   
    17   12   13 1   
    18   12   14 1   
    19   19   20 1   
    20   19   28 1   
    21   20   21 1   
    22   20   23 1   
    23   20   29 1   
    24   21   22 2   
    25   21   41 1   
    26   23   24 1   
    27   23   30 1   
    28   23   31 1   
    29   24   25 1   
    30   24   32 1   
    31   24   33 1   
    32   25   26 1   
    33   25   34 1   
    34   25   35 1   
    35   26   27 1   
    36   26   36 1   
    37   26   37 1   
    38   27   38 1   
    39   27   39 1   
    40   27   40 1   
    41   41   42 1   
    42   41   49 1   
    43   42   43 1   
    44   42   45 1   
    45   42   50 1   
    46   43   44 2   
    47   43   53 1   
    48   45   46 1   
    49   45   51 1   
    50   45   52 1   
    51   46   47 1   
    52   46   48 1   
    53   53   54 1   
    54   53   57 1   
    55   54   55 1   
    56   54   58 1   
    57   54   59 1   
    58   55   56 2   
    59   55   60 1   
    60   60   61 1   
    61   60   68 1   
    62   61   62 1   
    63   61   64 1   
    64   61   69 1   
    65   62   63 2   
    66   62   72 1   
    67   64   65 1   
    68   64   70 1   
    69   64   71 1   
    70   65   66 1   
    71   65   67 1   
    72   72   73 1   
    73   72   76 1   
    74   73   74 1   
    75   73   77 1   
    76   73   78 1   
    77   74   75 2   
    78   74   79 1   
    79   79   80 1   
    80   79   86 1   
    81   80   81 1   
    82   80   83 1   
    83   80   87 1   
    84   81   82 2   
    85   81   93 1   
    86   83   84 1   
    87   83   85 1   
    88   83   88 1   
    89   84   90 1   
    90   84   91 1   
    91   84   92 1   
    92   85   89 1   
    93   93   94 1   
    94   93  101 1   
    95   94   95 1   
    96   94   97 1   
    97   94  102 1   
    98   95   96 2   
    99   95  112 1   
   100   97   98 1   
   101   97   99 1   
   102   97  103 1   
   103   98  100 1   
   104   98  104 1   
   105   98  105 1   
   106   99  106 1   
   107   99  107 1   
   108   99  108 1   
   109  100  109 1   
   110  100  110 1   
   111  100  111 1   
   112  112  113 1   
   113  112  119 1   
   114  113  114 1   
   115  113  116 1   
   116  113  120 1   
   117  114  115 2   
   118  114  126 1   
   119  116  117 1   
   120  116  118 1   
   121  116  121 1   
   122  117  123 1   
   123  117  124 1   
   124  117  125 1   
   125  118  122 1   
   126  126  127 1   
   127  126  133 1   
   128  127  128 1   
   129  127  130 1   
   130  127  134 1   
   131  128  129 2   
   132  128  140 1   
   133  130  131 1   
   134  130  132 1   
   135  130  135 1   
   136  131  137 1   
   137  131  138 1   
   138  131  139 1   
   139  132  136 1   
   140  140  141 1   
   141  140  149 1   
   142  141  142 1   
   143  141  144 1   
   144  141  150 1   
   145  142  143 2   
   146  142  162 1   
   147  144  145 1   
   148  144  151 1   
   149  144  152 1   
   150  145  146 1   
   151  145  153 1   
   152  145  154 1   
   153  146  147 1   
   154  146  155 1   
   155  146  156 1   
   156  147  148 1   
   157  147  157 1   
   158  147  158 1   
   159  148  159 1   
   160  148  160 1   
   161  148  161 1   
   162  162  163 1   
   163  162  171 1   
   164  163  164 1   
   165  163  166 1   
   166  163  172 1   
   167  164  165 2   
   168  164  177 1   
   169  166  167 1   
   170  166  173 1   
   171  166  174 1   
   172  167  168 1   
   173  167  175 1   
   174  167  176 1   
   175  168  169 1   
   176  168  170 1   
   177  177  178 1   
   178  177  182 1   
   179  178  179 1   
   180  178  180 1   
   181  178  181 1   
   182  184  185 1   
   183  184  186 1   
   184  187  188 1   
   185  187  189 1   
@<TRIPOS>SUBSTRUCTURE
     1 MOL         1 TEMP              0 ****  ****    0 ROOT
