@<TRIPOS>MOLECULE
MOL
  179   176     1     0     0
SMALL
resp


@<TRIPOS>ATOM
      1 C1          1.8820    2.7300    6.8090 c3        1 MOL     -0.325277
      2 C2          1.8590    2.2890    5.3710 c         1 MOL      0.773171
      3 O1          2.8440    1.8290    4.7650 o         1 MOL     -0.602372
      4 H1          1.2960    2.0340    7.4110 hc        1 MOL      0.084589
      5 H2          2.9100    2.7430    7.1690 hc        1 MOL      0.084589
      6 H3          1.4540    3.7290    6.8910 hc        1 MOL      0.084589
      7 N1          0.6960    2.3120    4.7130 n         1 MOL     -0.611728
      8 C3          0.5420    2.1660    3.2580 c3        1 MOL     -0.024028
      9 C4          1.0630    3.4280    2.4890 c         1 MOL      0.639210
     10 O2          0.9780    4.5860    3.0270 o         1 MOL     -0.556870
     11 C5         -0.9730    1.9110    2.9770 c3        1 MOL     -0.047312
     12 C6         -1.2040    1.4640    1.5470 c         1 MOL      0.730535
     13 O3         -2.3630    1.4690    1.0740 o         1 MOL     -0.805607
     14 O4         -0.3010    0.9230    0.9210 o         1 MOL     -0.805607
     15 H4         -0.1680    2.4560    5.2250 hn        1 MOL      0.304615
     16 H5          1.2460    1.3940    2.9450 h1        1 MOL      0.054199
     17 H6         -1.5150    2.8160    3.2330 hc        1 MOL      0.038485
     18 H7         -1.4000    1.1150    3.5890 hc        1 MOL      0.038485
     19 N2          1.7290    3.2740    1.3130 n         1 MOL     -0.411063
     20 C7          2.2810    4.4190    0.4570 c3        1 MOL     -0.218121
     21 C8          1.1180    5.2080   -0.1690 c         1 MOL      0.586059
     22 O5          1.3560    6.3390   -0.5120 o         1 MOL     -0.576658
     23 C9          3.3280    3.7690   -0.4390 c3        1 MOL      0.248988
     24 C10         4.1160    4.7520   -1.3170 c3        1 MOL     -0.175891
     25 C11         5.1310    4.1120   -2.2790 c3        1 MOL     -0.101558
     26 C12         6.1990    5.0990   -2.7370 c3        1 MOL      0.056268
     27 N3          5.7020    5.9420   -3.9220 n4        1 MOL     -0.459217
     28 H8          1.8070    2.3260    0.9760 hn        1 MOL      0.301300
     29 H9          2.7570    5.1720    1.0900 h1        1 MOL      0.131979
     30 H10         2.8310    3.0400   -1.0820 hc        1 MOL      0.008653
     31 H11         3.9940    3.2910    0.2860 hc        1 MOL      0.008653
     32 H12         4.7320    5.3470   -0.6410 hc        1 MOL      0.060365
     33 H13         3.4280    5.3800   -1.8850 hc        1 MOL      0.060365
     34 H14         4.6920    3.5270   -3.0930 hc        1 MOL      0.084609
     35 H15         5.6640    3.4210   -1.6300 hc        1 MOL      0.084609
     36 H16         7.0360    4.4910   -3.0880 hx        1 MOL      0.100259
     37 H17         6.6520    5.7250   -1.9760 hx        1 MOL      0.100259
     38 H18         5.2340    5.3720   -4.6150 hn        1 MOL      0.348349
     39 H19         5.0950    6.6700   -3.5760 hn        1 MOL      0.348349
     40 H20         6.4150    6.3760   -4.4980 hn        1 MOL      0.348349
     41 N4         -0.0660    4.5740   -0.3870 n         1 MOL     -0.294874
     42 C13        -1.1810    5.2990   -1.0250 c3        1 MOL     -0.070282
     43 C14        -2.5110    5.1490   -0.2970 c         1 MOL      0.399679
     44 O6         -3.6170    5.4170   -0.8680 o         1 MOL     -0.522278
     45 C15        -1.3230    4.9830   -2.5490 c3        1 MOL     -0.228448
     46 C16        -1.5840    3.5380   -2.8980 c         1 MOL      0.795667
     47 O7         -1.4750    3.2790   -4.1020 o         1 MOL     -0.722448
     48 O8         -1.7610    2.6250   -2.0380 o         1 MOL     -0.722448
     49 H21        -0.1020    3.5900   -0.1840 hn        1 MOL      0.215919
     50 H22        -1.0030    6.3690   -0.9140 h1        1 MOL      0.141484
     51 H23        -0.4510    5.1640   -3.1780 hc        1 MOL      0.075683
     52 H24        -2.0620    5.6810   -2.9490 hc        1 MOL      0.075683
     53 N5         -2.5320    4.5560    0.9100 n         1 MOL     -0.190008
     54 C17        -3.7530    4.4030    1.7530 c3        1 MOL      0.039261
     55 C18        -5.0140    3.8320    1.1050 c         1 MOL      0.442161
     56 O9         -6.0920    4.2950    1.4440 o         1 MOL     -0.567988
     57 H25        -1.6350    4.2730    1.2700 hn        1 MOL      0.100131
     58 H26        -3.9290    5.3520    2.2570 h1        1 MOL      0.043350
     59 H27        -3.4740    3.6550    2.5060 h1        1 MOL      0.043350
     60 N6         -4.8770    2.9590    0.0990 n         1 MOL     -0.071902
     61 C19        -6.0010    2.4500   -0.6850 c3        1 MOL     -0.149172
     62 C20        -6.6980    1.2500   -0.0850 c         1 MOL      0.399135
     63 O10        -7.5520    0.6930   -0.7820 o         1 MOL     -0.495478
     64 C21        -5.5750    2.1750   -2.1690 c3        1 MOL     -0.043479
     65 C22        -4.9280    0.7990   -2.3830 c         1 MOL      0.632530
     66 N7         -5.5540    0.0260   -3.2680 n         1 MOL     -0.788821
     67 O11        -3.9850    0.3440   -1.8050 o         1 MOL     -0.634577
     68 H28        -3.9480    2.6680   -0.1560 hn        1 MOL      0.161190
     69 H29        -6.7160    3.2730   -0.7480 h1        1 MOL      0.160093
     70 H30        -4.8180    2.8870   -2.5010 hc        1 MOL      0.048942
     71 H31        -6.4680    2.2520   -2.7830 hc        1 MOL      0.048942
     72 H32        -6.3900    0.3570   -3.7420 hn        1 MOL      0.377325
     73 H33        -5.1620   -0.9020   -3.3000 hn        1 MOL      0.377325
     74 N8         -6.4940    0.8460    1.1690 n         1 MOL     -0.234531
     75 C23        -7.0980   -0.4020    1.7380 c3        1 MOL     -0.390222
     76 C24        -6.1530   -1.5820    1.7530 c         1 MOL      0.600755
     77 O12        -6.5060   -2.5820    2.3960 o         1 MOL     -0.556513
     78 H34        -5.7390    1.2570    1.6950 hn        1 MOL      0.243118
     79 H35        -7.9520   -0.6950    1.1190 h1        1 MOL      0.193294
     80 H36        -7.3970   -0.0530    2.7330 h1        1 MOL      0.193294
     81 N9         -5.0000   -1.5570    1.0400 n         1 MOL     -0.337221
     82 C25        -4.1590   -2.7940    1.0240 c3        1 MOL      0.297391
     83 C26        -2.6780   -2.3000    0.9880 c         1 MOL      0.086477
     84 O13        -2.3730   -1.2380    0.4500 o         1 MOL     -0.272554
     85 C27        -4.3310   -3.6970   -0.2570 c3        1 MOL      0.070559
     86 C28        -5.6850   -4.2290   -0.5120 ca        1 MOL     -0.001046
     87 C29        -6.6700   -3.3280   -1.0200 ca        1 MOL     -0.185534
     88 C30        -5.9550   -5.5340   -0.2690 ca        1 MOL     -0.185534
     89 C31        -7.9870   -3.7920   -1.2980 ca        1 MOL     -0.204786
     90 C32        -7.2340   -6.0200   -0.5740 ca        1 MOL     -0.204786
     91 C33        -8.2670   -5.1490   -1.0970 ca        1 MOL      0.302133
     92 O14        -9.5240   -5.6330   -1.4890 oh        1 MOL     -0.492997
     93 H37        -4.6350   -0.7380    0.5750 hn        1 MOL      0.206774
     94 H38        -4.2540   -3.2980    1.9930 h1        1 MOL      0.003462
     95 H39        -3.6120   -4.5030   -0.2630 hc        1 MOL     -0.010348
     96 H40        -4.1640   -3.0990   -1.1530 hc        1 MOL     -0.010348
     97 H41        -6.4400   -2.3120   -1.3020 ha        1 MOL      0.136497
     98 H42        -5.2210   -6.1530    0.2270 ha        1 MOL      0.136497
     99 H43        -8.6720   -3.0910   -1.7590 ha        1 MOL      0.133073
    100 H44        -7.4760   -7.0650   -0.4130 ha        1 MOL      0.133073
    101 H45        -9.6620   -6.5700   -1.3620 ho        1 MOL      0.359108
    102 N10        -1.7170   -3.2110    1.3650 n         1 MOL     -0.235625
    103 C34        -0.2750   -2.8870    1.3120 c3        1 MOL     -0.014414
    104 C35         0.5950   -3.9610    0.6890 c         1 MOL      0.294546
    105 O15         0.4810   -5.1710    1.0630 o         1 MOL     -0.524932
    106 C36         0.2080   -2.5000    2.7310 c3        1 MOL      0.098474
    107 C37         1.6120   -1.7740    2.6060 c3        1 MOL      0.076543
    108 C38         0.2770   -3.6730    3.7400 c3        1 MOL     -0.386891
    109 C39         2.0280   -1.2560    3.9110 c3        1 MOL     -0.438887
    110 H46        -2.0580   -4.0560    1.7990 hn        1 MOL      0.258905
    111 H47        -0.1700   -2.0540    0.6200 h1        1 MOL      0.040243
    112 H48        -0.6140   -1.9150    3.1430 hc        1 MOL      0.079168
    113 H49         1.5160   -1.0820    1.7770 hc        1 MOL      0.062616
    114 H50         2.3390   -2.4950    2.2340 hc        1 MOL      0.062616
    115 H51         1.1030   -4.3300    3.4610 hc        1 MOL      0.091486
    116 H52         0.3180   -3.2730    4.7510 hc        1 MOL      0.091486
    117 H53        -0.6750   -4.2060    3.7110 hc        1 MOL      0.091486
    118 H54         2.4660   -2.0590    4.5110 hc        1 MOL      0.111689
    119 H55         2.8200   -0.5470    3.6580 hc        1 MOL      0.111689
    120 H56         1.2130   -0.7120    4.3790 hc        1 MOL      0.111689
    121 N11         1.4960   -3.5840   -0.2110 n         1 MOL     -0.071708
    122 C40         2.4570   -4.4970   -0.8290 c3        1 MOL     -0.031469
    123 C41         3.8840   -4.2590   -0.2480 c         1 MOL      0.569067
    124 O16         4.0580   -3.1910    0.3800 o         1 MOL     -0.463724
    125 C42         2.3880   -4.6210   -2.3450 c3        1 MOL     -0.028802
    126 O17         2.9470   -3.4700   -2.9400 oh        1 MOL     -0.576214
    127 H57         1.5540   -2.6300   -0.5490 hn        1 MOL      0.196585
    128 H58         2.2680   -5.4950   -0.4320 h1        1 MOL      0.036523
    129 H59         1.3530   -4.7210   -2.6880 h1        1 MOL      0.084122
    130 H60         2.9600   -5.4540   -2.7480 h1        1 MOL      0.084122
    131 H61         2.3050   -3.0440   -3.5140 ho        1 MOL      0.416246
    132 N12         4.8790   -5.1370   -0.5110 n         1 MOL     -0.509889
    133 C43         6.2010   -5.0580    0.0830 c3        1 MOL      0.190204
    134 C44         7.0100   -3.7670   -0.2080 c         1 MOL      0.454423
    135 O18         7.6660   -3.1960    0.6990 o         1 MOL     -0.533961
    136 C45         7.0090   -6.3330   -0.1940 c3        1 MOL     -0.396785
    137 H62         4.7070   -5.9100   -1.1370 hn        1 MOL      0.316320
    138 H63         6.0740   -4.9970    1.1660 h1        1 MOL      0.073146
    139 H64         7.8770   -6.0800    0.4200 hc        1 MOL      0.116737
    140 H65         6.5060   -7.2220    0.1780 hc        1 MOL      0.116737
    141 H66         7.2950   -6.4480   -1.2330 hc        1 MOL      0.116737
    142 N13         6.8490   -3.2240   -1.4190 n         1 MOL     -0.380495
    143 C46         7.6260   -2.0440   -1.8300 c3        1 MOL      0.168814
    144 C47         6.9470   -0.6900   -1.4400 c         1 MOL      0.343963
    145 O19         7.6160    0.3220   -1.5500 o         1 MOL     -0.533747
    146 C48         7.7660   -2.0700   -3.3590 c3        1 MOL     -0.335672
    147 H67         6.3920   -3.7970   -2.1200 hn        1 MOL      0.274792
    148 H68         8.6310   -2.0310   -1.4060 h1        1 MOL      0.094939
    149 H69         6.8240   -2.3830   -3.7930 hc        1 MOL      0.086469
    150 H70         8.0740   -1.0990   -3.7370 hc        1 MOL      0.086469
    151 H71         8.5090   -2.8610   -3.5030 hc        1 MOL      0.086469
    152 N14         5.7870   -0.8120   -0.9000 n         1 MOL     -0.089323
    153 C49         5.1580    0.2570   -0.1360 c3        1 MOL     -0.037881
    154 C50         5.5770    0.2100    1.4010 c         1 MOL      0.455983
    155 O20         5.9970    1.2250    2.0070 o         1 MOL     -0.511643
    156 C51         3.6240    0.1260   -0.2950 c3        1 MOL      0.169975
    157 C52         3.1600   -0.1000   -1.7550 c3        1 MOL     -0.131810
    158 C53         1.6330   -0.0930   -1.7640 c         1 MOL      0.640501
    159 O21         0.9620   -1.1220   -1.4190 o         1 MOL     -0.679199
    160 O22         1.0310    0.9330   -2.0160 o         1 MOL     -0.679199
    161 H72         5.3490   -1.7150   -0.7550 hn        1 MOL      0.127436
    162 H73         5.4020    1.2580   -0.5100 h1        1 MOL      0.017657
    163 H74         3.1980    1.0780    0.0450 hc        1 MOL     -0.061151
    164 H75         3.2720   -0.6100    0.4250 hc        1 MOL     -0.061151
    165 H76         3.5450   -1.0610   -2.0730 hc        1 MOL     -0.003124
    166 H77         3.6690    0.6030   -2.4180 hc        1 MOL     -0.003124
    167 N15         5.6310   -1.0440    1.8960 n         1 MOL     -0.089462
    168 C54         6.0460   -1.4240    3.2800 c3        1 MOL     -0.328804
    169 H78         7.1340   -1.4080    3.3500 h1        1 MOL      0.129154
    170 H79         5.6260   -0.7150    3.9940 h1        1 MOL      0.129154
    171 H80         5.6830   -2.4270    3.5060 h1        1 MOL      0.129154
    172 H81         5.3480   -1.8430    1.3460 hn        1 MOL      0.128549
    173 Ca1        -1.3580    0.2550   -1.4110 Ca        1 MOL      1.761790
    174 O23        -1.1270    0.3730   -4.0870 oh        1 MOL     -0.889145
    175 H82        -1.1230    1.3160   -4.2930 ho        1 MOL      0.414801
    176 H83        -1.0860   -0.0520   -4.9410 ho        1 MOL      0.414801
    177 O24        -1.9690   -2.2190   -2.3540 oh        1 MOL     -0.889145
    178 H84        -1.3720   -2.6680   -2.9530 ho        1 MOL      0.414801
    179 H85        -2.8240   -2.6350   -2.5180 ho        1 MOL      0.414801
@<TRIPOS>BOND
     1    1    2 1   
     2    1    4 1   
     3    1    5 1   
     4    1    6 1   
     5    2    3 2   
     6    2    7 1   
     7    7    8 1   
     8    7   15 1   
     9    8    9 1   
    10    8   11 1   
    11    8   16 1   
    12    9   10 2   
    13    9   19 1   
    14   11   12 1   
    15   11   17 1   
    16   11   18 1   
    17   12   13 1   
    18   12   14 1   
    19   19   20 1   
    20   19   28 1   
    21   20   21 1   
    22   20   23 1   
    23   20   29 1   
    24   21   22 2   
    25   21   41 1   
    26   23   24 1   
    27   23   30 1   
    28   23   31 1   
    29   24   25 1   
    30   24   32 1   
    31   24   33 1   
    32   25   26 1   
    33   25   34 1   
    34   25   35 1   
    35   26   27 1   
    36   26   36 1   
    37   26   37 1   
    38   27   38 1   
    39   27   39 1   
    40   27   40 1   
    41   41   42 1   
    42   41   49 1   
    43   42   43 1   
    44   42   45 1   
    45   42   50 1   
    46   43   44 2   
    47   43   53 1   
    48   45   46 1   
    49   45   51 1   
    50   45   52 1   
    51   46   47 1   
    52   46   48 1   
    53   53   54 1   
    54   53   57 1   
    55   54   55 1   
    56   54   58 1   
    57   54   59 1   
    58   55   56 2   
    59   55   60 1   
    60   60   61 1   
    61   60   68 1   
    62   61   62 1   
    63   61   64 1   
    64   61   69 1   
    65   62   63 2   
    66   62   74 1   
    67   64   65 1   
    68   64   70 1   
    69   64   71 1   
    70   65   66 1   
    71   65   67 2   
    72   66   72 1   
    73   66   73 1   
    74   74   75 1   
    75   74   78 1   
    76   75   76 1   
    77   75   79 1   
    78   75   80 1   
    79   76   77 2   
    80   76   81 1   
    81   81   82 1   
    82   81   93 1   
    83   82   83 1   
    84   82   85 1   
    85   82   94 1   
    86   83   84 2   
    87   83  102 1   
    88   85   86 1   
    89   85   95 1   
    90   85   96 1   
    91   86   87 ar  
    92   86   88 ar  
    93   87   89 ar  
    94   87   97 1   
    95   88   90 ar  
    96   88   98 1   
    97   89   91 ar  
    98   89   99 1   
    99   90   91 ar  
   100   90  100 1   
   101   91   92 1   
   102   92  101 1   
   103  102  103 1   
   104  102  110 1   
   105  103  104 1   
   106  103  106 1   
   107  103  111 1   
   108  104  105 2   
   109  104  121 1   
   110  106  107 1   
   111  106  108 1   
   112  106  112 1   
   113  107  109 1   
   114  107  113 1   
   115  107  114 1   
   116  108  115 1   
   117  108  116 1   
   118  108  117 1   
   119  109  118 1   
   120  109  119 1   
   121  109  120 1   
   122  121  122 1   
   123  121  127 1   
   124  122  123 1   
   125  122  125 1   
   126  122  128 1   
   127  123  124 2   
   128  123  132 1   
   129  125  126 1   
   130  125  129 1   
   131  125  130 1   
   132  126  131 1   
   133  132  133 1   
   134  132  137 1   
   135  133  134 1   
   136  133  136 1   
   137  133  138 1   
   138  134  135 2   
   139  134  142 1   
   140  136  139 1   
   141  136  140 1   
   142  136  141 1   
   143  142  143 1   
   144  142  147 1   
   145  143  144 1   
   146  143  146 1   
   147  143  148 1   
   148  144  145 2   
   149  144  152 1   
   150  146  149 1   
   151  146  150 1   
   152  146  151 1   
   153  152  153 1   
   154  152  161 1   
   155  153  154 1   
   156  153  156 1   
   157  153  162 1   
   158  154  155 2   
   159  154  167 1   
   160  156  157 1   
   161  156  163 1   
   162  156  164 1   
   163  157  158 1   
   164  157  165 1   
   165  157  166 1   
   166  158  159 1   
   167  158  160 1   
   168  167  168 1   
   169  167  172 1   
   170  168  169 1   
   171  168  170 1   
   172  168  171 1   
   173  174  175 1   
   174  174  176 1   
   175  177  178 1   
   176  177  179 1   
@<TRIPOS>SUBSTRUCTURE
     1 MOL         1 TEMP              0 ****  ****    0 ROOT
