@<TRIPOS>MOLECULE
MOL
  179   176     1     0     0
SMALL
resp


@<TRIPOS>ATOM
      1 C1         -1.7350   -3.3630    6.8130 c3        1 MOL     -0.373838
      2 C2         -1.7390   -2.9250    5.3440 c         1 MOL      0.754514
      3 O1         -2.7640   -2.6350    4.7770 o         1 MOL     -0.578387
      4 H1         -0.7190   -3.3060    7.2050 hc        1 MOL      0.095278
      5 H2         -2.3840   -2.7060    7.3910 hc        1 MOL      0.095278
      6 H3         -2.0960   -4.3890    6.8880 hc        1 MOL      0.095278
      7 N1         -0.5810   -2.8920    4.6890 n         1 MOL     -0.585443
      8 C3         -0.5660   -2.5600    3.2900 c3        1 MOL     -0.044345
      9 C4         -0.7840   -3.7880    2.4420 c         1 MOL      0.627908
     10 O2         -0.3080   -4.8930    2.7770 o         1 MOL     -0.544940
     11 C5          0.7440   -1.8700    3.0320 c3        1 MOL     -0.113029
     12 C6          0.9280   -1.4810    1.5160 c         1 MOL      0.474896
     13 O3          2.0600   -1.6080    1.0220 o         1 MOL     -0.633316
     14 O4         -0.0280   -1.1570    0.8030 o         1 MOL     -0.633316
     15 H4          0.3320   -2.9830    5.0990 hn        1 MOL      0.320168
     16 H5         -1.3160   -1.8010    3.0880 h1        1 MOL      0.141574
     17 H6          1.5250   -2.6210    3.1700 hc        1 MOL      0.060873
     18 H7          0.9600   -1.0370    3.7050 hc        1 MOL      0.060873
     19 N2         -1.4970   -3.6360    1.3160 n         1 MOL     -0.187839
     20 C7         -1.7770   -4.5430    0.2450 c3        1 MOL     -0.256604
     21 C8         -0.5940   -5.3150   -0.3740 c         1 MOL      0.474782
     22 O5         -0.7360   -6.5100   -0.7630 o         1 MOL     -0.565539
     23 C9         -2.6010   -3.8630   -0.7810 c3        1 MOL      0.120155
     24 C10        -3.1390   -4.7700   -1.8830 c3        1 MOL     -0.083658
     25 C11        -4.0320   -4.0120   -2.8990 c3        1 MOL     -0.068205
     26 C12        -4.5210   -4.8480   -4.1100 c3        1 MOL      0.039498
     27 N3         -5.1070   -3.9550   -5.1650 n4        1 MOL     -0.323835
     28 H8         -1.7710   -2.6610    1.2000 hn        1 MOL      0.016228
     29 H9         -2.3730   -5.3230    0.7370 h1        1 MOL      0.128065
     30 H10        -2.0940   -3.0580   -1.3200 hc        1 MOL      0.060735
     31 H11        -3.4380   -3.4060   -0.2560 hc        1 MOL      0.060735
     32 H12        -3.8040   -5.5180   -1.4490 hc        1 MOL      0.045374
     33 H13        -2.3120   -5.2880   -2.3840 hc        1 MOL      0.045374
     34 H14        -3.4730   -3.1490   -3.2450 hc        1 MOL      0.045332
     35 H15        -4.9100   -3.7140   -2.3250 hc        1 MOL      0.045332
     36 H16        -5.1380   -5.7290   -3.9200 hx        1 MOL      0.094214
     37 H17        -3.6250   -5.3140   -4.5230 hx        1 MOL      0.094214
     38 H18        -4.5370   -3.1480   -5.3770 hn        1 MOL      0.315457
     39 H19        -5.3770   -4.4210   -6.0130 hn        1 MOL      0.315457
     40 H20        -5.8330   -3.4130   -4.7240 hn        1 MOL      0.315457
     41 N4          0.4720   -4.6080   -0.5270 n         1 MOL     -0.141705
     42 C13         1.6400   -5.3000   -1.0840 c3        1 MOL      0.004071
     43 C14         2.9460   -5.0530   -0.3340 c         1 MOL      0.416786
     44 O6          3.9710   -5.6710   -0.6500 o         1 MOL     -0.550187
     45 C15         1.7220   -4.9400   -2.6050 c3        1 MOL     -0.295358
     46 C16         1.7900   -3.4730   -2.9250 c         1 MOL      0.773129
     47 O7          2.0070   -2.6350   -1.9790 o         1 MOL     -0.698129
     48 O8          1.4650   -3.1030   -4.0780 o         1 MOL     -0.698129
     49 H21         0.5010   -3.6080   -0.3830 hn        1 MOL      0.148892
     50 H22         1.5630   -6.3880   -1.0020 h1        1 MOL      0.131052
     51 H23         0.8540   -5.4280   -3.0600 hc        1 MOL      0.085947
     52 H24         2.6670   -5.2990   -3.0100 hc        1 MOL      0.085947
     53 N5          2.9200   -4.2570    0.6880 n         1 MOL     -0.152840
     54 C17         4.0350   -4.0150    1.5940 c3        1 MOL     -0.020543
     55 C18         5.2250   -3.2850    0.9700 c         1 MOL      0.482382
     56 O9          6.3050   -3.4130    1.4890 o         1 MOL     -0.592831
     57 H25         2.0780   -3.7380    0.9000 hn        1 MOL      0.082739
     58 H26         4.3220   -4.9640    2.0410 h1        1 MOL      0.073907
     59 H27         3.6250   -3.4210    2.4180 h1        1 MOL      0.073907
     60 N6          5.1840   -2.4130   -0.0290 n         1 MOL     -0.026777
     61 C19         6.3840   -2.0290   -0.8140 c3        1 MOL     -0.174927
     62 C20         7.0950   -0.8370   -0.1640 c         1 MOL      0.513962
     63 O10         8.0080   -0.2400   -0.7570 o         1 MOL     -0.543822
     64 C21         5.9670   -1.6260   -2.2050 c3        1 MOL     -0.107787
     65 C22         5.0870   -0.3740   -2.3070 c         1 MOL      0.454894
     66 N7          5.4980    0.5880   -3.1030 n         1 MOL     -0.753861
     67 O11         4.0920   -0.1460   -1.6130 o         1 MOL     -0.475990
     68 H28         4.2720   -2.0690   -0.3140 hn        1 MOL      0.022979
     69 H29         6.9790   -2.9310   -0.9500 h1        1 MOL      0.169382
     70 H30         5.6230   -2.5220   -2.7190 hc        1 MOL      0.088505
     71 H31         6.8660   -1.3450   -2.7440 hc        1 MOL      0.088505
     72 H32         6.3990    0.4670   -3.5390 hn        1 MOL      0.381067
     73 H33         4.8340    1.3390   -3.2550 hn        1 MOL      0.381067
     74 N8          6.7800   -0.4150    1.0760 n         1 MOL     -0.337525
     75 C23         7.1890    0.8030    1.8070 c3        1 MOL     -0.016840
     76 C24         6.1040    1.9490    1.7480 c         1 MOL      0.305416
     77 O12         6.3830    2.9960    2.3970 o         1 MOL     -0.495345
     78 H34         6.0650   -0.9720    1.5200 hn        1 MOL      0.253998
     79 H35         8.2060    1.1640    1.6050 h1        1 MOL      0.108713
     80 H36         7.2880    0.5400    2.8550 h1        1 MOL      0.108713
     81 N9          4.9280    1.8930    1.0160 n         1 MOL     -0.121037
     82 C25         3.8780    2.9830    0.9430 c3        1 MOL      0.220454
     83 C26         2.4510    2.4380    1.0660 c         1 MOL      0.151758
     84 O13         2.2760    1.2440    0.7270 o         1 MOL     -0.422135
     85 C27         4.0460    3.8230   -0.3370 c3        1 MOL      0.095875
     86 C28         5.3910    4.5280   -0.5080 ca        1 MOL     -0.079534
     87 C29         5.5030    5.8970   -0.2420 ca        1 MOL     -0.174436
     88 C30         6.5190    3.7760   -0.9370 ca        1 MOL     -0.174436
     89 C31         6.7310    6.5550   -0.4670 ca        1 MOL     -0.173903
     90 C32         7.8000    4.3930   -0.9610 ca        1 MOL     -0.173903
     91 C33         7.9120    5.7670   -0.8070 ca        1 MOL      0.276965
     92 O14         9.0120    6.4610   -1.1780 oh        1 MOL     -0.491709
     93 H37         4.6760    1.0100    0.5990 hn        1 MOL      0.092418
     94 H38         4.1360    3.6010    1.8010 h1        1 MOL      0.038449
     95 H39         3.2620    4.5810   -0.4570 hc        1 MOL      0.003891
     96 H40         4.0440    3.0860   -1.1470 hc        1 MOL      0.003891
     97 H41         4.5970    6.4460   -0.0420 ha        1 MOL      0.141702
     98 H42         6.3830    2.7340   -1.1800 ha        1 MOL      0.141702
     99 H43         6.6970    7.6360   -0.5000 ha        1 MOL      0.127032
    100 H44         8.6860    3.8190   -1.2090 ha        1 MOL      0.127032
    101 H45         9.7440    5.8560   -1.3070 ho        1 MOL      0.374911
    102 N10         1.3840    3.1590    1.4520 n         1 MOL     -0.296225
    103 C34        -0.0700    2.8060    1.3480 c3        1 MOL      0.071385
    104 C35        -0.8780    3.9950    0.8340 c         1 MOL      0.538895
    105 O15        -0.3670    5.1350    0.9120 o         1 MOL     -0.575518
    106 C36        -0.6180    2.2350    2.7370 c3        1 MOL      0.017367
    107 C37        -1.8880    1.3290    2.5000 c3        1 MOL      0.573007
    108 C38        -0.8650    3.1920    3.8960 c3        1 MOL     -0.300481
    109 C39        -2.4750    0.7030    3.7850 c3        1 MOL     -0.129297
    110 H46         1.5650    4.0810    1.8300 hn        1 MOL      0.245317
    111 H47        -0.1080    1.9650    0.6530 h1        1 MOL      0.104561
    112 H48         0.1770    1.6000    3.1250 hc        1 MOL      0.064957
    113 H49        -1.6280    0.5010    1.8490 hc        1 MOL     -0.285725
    114 H50        -2.7030    1.9290    2.0790 hc        1 MOL     -0.285725
    115 H51        -1.6790    3.8070    3.5240 hc        1 MOL      0.062016
    116 H52        -1.0950    2.4950    4.6990 hc        1 MOL      0.062016
    117 H53         0.0640    3.7000    4.1440 hc        1 MOL      0.062016
    118 H54        -1.6890    0.2090    4.3650 hc        1 MOL      0.009685
    119 H55        -3.0290    1.4410    4.3590 hc        1 MOL      0.009685
    120 H56        -3.2180   -0.0330    3.4760 hc        1 MOL      0.009685
    121 N11        -2.0020    3.6210    0.2670 n         1 MOL     -0.179501
    122 C40        -2.9310    4.5230   -0.3990 c3        1 MOL     -0.154227
    123 C41        -4.4300    4.1950   -0.1480 c         1 MOL      0.479613
    124 O16        -4.7250    3.1390    0.4440 o         1 MOL     -0.436675
    125 C42        -2.7710    4.4630   -1.9050 c3        1 MOL     -0.043579
    126 O17        -2.8870    3.1050   -2.3520 oh        1 MOL     -0.577435
    127 H57        -2.0150    2.6160    0.2260 hn        1 MOL      0.234835
    128 H58        -2.8870    5.5820   -0.1450 h1        1 MOL      0.098284
    129 H59        -1.7400    4.7760   -2.0620 h1        1 MOL      0.093937
    130 H60        -3.5050    4.9910   -2.5020 h1        1 MOL      0.093937
    131 H61        -2.2010    2.5440   -1.9810 ho        1 MOL      0.426911
    132 N12        -5.3860    5.0620   -0.5290 n         1 MOL     -0.359622
    133 C43        -6.8280    4.9540   -0.2520 c3        1 MOL      0.027016
    134 C44        -7.4490    3.5320   -0.3500 c         1 MOL      0.544260
    135 O18        -8.1170    3.1050    0.5520 o         1 MOL     -0.524837
    136 C45        -7.5780    6.0400   -1.1410 c3        1 MOL     -0.337644
    137 H62        -5.1010    5.9390   -0.9380 hn        1 MOL      0.278496
    138 H63        -6.9780    5.1880    0.7990 h1        1 MOL      0.090718
    139 H64        -7.3260    7.0440   -0.7850 hc        1 MOL      0.109191
    140 H65        -7.3060    5.9830   -2.2010 hc        1 MOL      0.109191
    141 H66        -8.6620    5.9650   -1.0810 hc        1 MOL      0.109191
    142 N13        -7.2760    2.7440   -1.4170 n         1 MOL     -0.427842
    143 C46        -7.9220    1.4580   -1.6760 c3        1 MOL      0.104751
    144 C47        -7.2440    0.2890   -0.9400 c         1 MOL      0.377224
    145 O19        -7.8840   -0.6560   -0.5500 o         1 MOL     -0.504838
    146 C48        -7.9660    1.1810   -3.1250 c3        1 MOL     -0.260362
    147 H67        -6.5870    3.0940   -2.0640 hn        1 MOL      0.281618
    148 H68        -8.9360    1.4740   -1.2690 h1        1 MOL      0.114680
    149 H69        -6.9570    1.0550   -3.5290 hc        1 MOL      0.069637
    150 H70        -8.3950    0.1950   -3.2970 hc        1 MOL      0.069637
    151 H71        -8.3820    1.9820   -3.7390 hc        1 MOL      0.069637
    152 N14        -5.9440    0.3370   -0.6990 n         1 MOL     -0.099826
    153 C49        -5.2070   -0.6070    0.0400 c3        1 MOL     -0.348749
    154 C50        -5.5950   -0.5630    1.5370 c         1 MOL      0.535322
    155 O20        -5.7710   -1.5800    2.1660 o         1 MOL     -0.534044
    156 C51        -3.7430   -0.3280   -0.0760 c3        1 MOL     -0.636553
    157 C52        -3.2300   -0.2450   -1.4850 c3        1 MOL      0.372522
    158 C53        -1.7370    0.0370   -1.6070 c         1 MOL      0.511905
    159 O21        -0.9850   -0.7620   -2.2100 o         1 MOL     -0.666845
    160 O22        -1.3440    1.1340   -1.2780 o         1 MOL     -0.666845
    161 H72        -5.4810    1.1730   -1.0290 hn        1 MOL      0.187466
    162 H73        -5.4170   -1.5780   -0.4000 h1        1 MOL      0.164802
    163 H74        -3.1840   -1.0670    0.4930 hc        1 MOL      0.336343
    164 H75        -3.5200    0.6410    0.3890 hc        1 MOL      0.336343
    165 H76        -3.6930    0.5110   -2.1100 hc        1 MOL     -0.117640
    166 H77        -3.4380   -1.2190   -1.9330 hc        1 MOL     -0.117640
    167 N15        -5.8080    0.6560    2.0420 n         1 MOL      0.013221
    168 C54        -6.4180    0.9730    3.3660 c3        1 MOL     -0.251292
    169 H78        -7.4910    1.1240    3.2450 h1        1 MOL      0.100554
    170 H79        -6.2450    0.1460    4.0540 h1        1 MOL      0.100554
    171 H80        -5.9680    1.8810    3.7660 h1        1 MOL      0.100554
    172 H81        -5.7240    1.3870    1.3430 hn        1 MOL      0.099749
    173 Ca1         1.3540   -0.2950   -1.2490 Ca        1 MOL      1.702113
    174 O23         1.7420   -0.4610   -3.8700 oh        1 MOL     -0.885510
    175 H82         1.7630   -1.3760   -4.1620 ho        1 MOL      0.406519
    176 H83         2.1640    0.0250   -4.5740 ho        1 MOL      0.406519
    177 O24         1.4840    2.2470   -2.0210 oh        1 MOL     -0.885510
    178 H84         0.7060    2.5110   -2.5040 ho        1 MOL      0.406519
    179 H85         2.1820    2.2320   -2.6780 ho        1 MOL      0.406519
@<TRIPOS>BOND
     1    1    2 1   
     2    1    4 1   
     3    1    5 1   
     4    1    6 1   
     5    2    3 2   
     6    2    7 1   
     7    7    8 1   
     8    7   15 1   
     9    8    9 1   
    10    8   11 1   
    11    8   16 1   
    12    9   10 2   
    13    9   19 1   
    14   11   12 1   
    15   11   17 1   
    16   11   18 1   
    17   12   13 1   
    18   12   14 1   
    19   19   20 1   
    20   19   28 1   
    21   20   21 1   
    22   20   23 1   
    23   20   29 1   
    24   21   22 2   
    25   21   41 1   
    26   23   24 1   
    27   23   30 1   
    28   23   31 1   
    29   24   25 1   
    30   24   32 1   
    31   24   33 1   
    32   25   26 1   
    33   25   34 1   
    34   25   35 1   
    35   26   27 1   
    36   26   36 1   
    37   26   37 1   
    38   27   38 1   
    39   27   39 1   
    40   27   40 1   
    41   41   42 1   
    42   41   49 1   
    43   42   43 1   
    44   42   45 1   
    45   42   50 1   
    46   43   44 2   
    47   43   53 1   
    48   45   46 1   
    49   45   51 1   
    50   45   52 1   
    51   46   47 1   
    52   46   48 1   
    53   53   54 1   
    54   53   57 1   
    55   54   55 1   
    56   54   58 1   
    57   54   59 1   
    58   55   56 2   
    59   55   60 1   
    60   60   61 1   
    61   60   68 1   
    62   61   62 1   
    63   61   64 1   
    64   61   69 1   
    65   62   63 2   
    66   62   74 1   
    67   64   65 1   
    68   64   70 1   
    69   64   71 1   
    70   65   66 1   
    71   65   67 2   
    72   66   72 1   
    73   66   73 1   
    74   74   75 1   
    75   74   78 1   
    76   75   76 1   
    77   75   79 1   
    78   75   80 1   
    79   76   77 2   
    80   76   81 1   
    81   81   82 1   
    82   81   93 1   
    83   82   83 1   
    84   82   85 1   
    85   82   94 1   
    86   83   84 2   
    87   83  102 1   
    88   85   86 1   
    89   85   95 1   
    90   85   96 1   
    91   86   87 ar  
    92   86   88 ar  
    93   87   89 ar  
    94   87   97 1   
    95   88   90 ar  
    96   88   98 1   
    97   89   91 ar  
    98   89   99 1   
    99   90   91 ar  
   100   90  100 1   
   101   91   92 1   
   102   92  101 1   
   103  102  103 1   
   104  102  110 1   
   105  103  104 1   
   106  103  106 1   
   107  103  111 1   
   108  104  105 2   
   109  104  121 1   
   110  106  107 1   
   111  106  108 1   
   112  106  112 1   
   113  107  109 1   
   114  107  113 1   
   115  107  114 1   
   116  108  115 1   
   117  108  116 1   
   118  108  117 1   
   119  109  118 1   
   120  109  119 1   
   121  109  120 1   
   122  121  122 1   
   123  121  127 1   
   124  122  123 1   
   125  122  125 1   
   126  122  128 1   
   127  123  124 2   
   128  123  132 1   
   129  125  126 1   
   130  125  129 1   
   131  125  130 1   
   132  126  131 1   
   133  132  133 1   
   134  132  137 1   
   135  133  134 1   
   136  133  136 1   
   137  133  138 1   
   138  134  135 2   
   139  134  142 1   
   140  136  139 1   
   141  136  140 1   
   142  136  141 1   
   143  142  143 1   
   144  142  147 1   
   145  143  144 1   
   146  143  146 1   
   147  143  148 1   
   148  144  145 2   
   149  144  152 1   
   150  146  149 1   
   151  146  150 1   
   152  146  151 1   
   153  152  153 1   
   154  152  161 1   
   155  153  154 1   
   156  153  156 1   
   157  153  162 1   
   158  154  155 2   
   159  154  167 1   
   160  156  157 1   
   161  156  163 1   
   162  156  164 1   
   163  157  158 1   
   164  157  165 1   
   165  157  166 1   
   166  158  159 1   
   167  158  160 1   
   168  167  168 1   
   169  167  172 1   
   170  168  169 1   
   171  168  170 1   
   172  168  171 1   
   173  174  175 1   
   174  174  176 1   
   175  177  178 1   
   176  177  179 1   
@<TRIPOS>SUBSTRUCTURE
     1 MOL         1 TEMP              0 ****  ****    0 ROOT
