@<TRIPOS>MOLECULE
MOL
  176   174     1     0     0
SMALL
resp


@<TRIPOS>ATOM
      1 C1         -1.4400   -3.5920    6.3690 c3        1 MOL     -0.301451
      2 C2         -1.2050   -3.0820    4.9330 c         1 MOL      0.682361
      3 O1         -2.1600   -2.8810    4.2090 o         1 MOL     -0.561695
      4 H1         -2.1310   -4.4350    6.3460 hc        1 MOL      0.076101
      5 H2         -0.4920   -3.9100    6.8020 hc        1 MOL      0.076101
      6 H3         -1.8650   -2.7910    6.9740 hc        1 MOL      0.076101
      7 N1          0.0460   -3.0950    4.4940 n         1 MOL     -0.601086
      8 C3          0.4210   -2.9490    3.1210 c3        1 MOL     -0.037735
      9 C4          0.0790   -4.2780    2.5070 c         1 MOL      0.837034
     10 O2          0.3670   -5.3250    3.0890 o         1 MOL     -0.607319
     11 C5          1.9150   -2.6480    2.8870 c3        1 MOL     -0.079755
     12 C6          2.1970   -2.0030    1.5540 c         1 MOL      0.760936
     13 O3          1.9150   -2.5910    0.5110 o         1 MOL     -0.763034
     14 O4          2.5130   -0.8010    1.4730 o         1 MOL     -0.763034
     15 H4          0.7840   -3.1190    5.1900 hn        1 MOL      0.337823
     16 H5         -0.1740   -2.1290    2.7030 h1        1 MOL      0.092074
     17 H6          2.4490   -3.5950    2.9600 hc        1 MOL      0.032878
     18 H7          2.3360   -2.1400    3.7650 hc        1 MOL      0.032878
     19 N2         -0.3450   -4.2050    1.2770 n         1 MOL     -0.612616
     20 C7         -0.7050   -5.3270    0.3830 c3        1 MOL     -0.005478
     21 C8          0.4570   -5.8860   -0.4400 c         1 MOL      0.476328
     22 O5          0.2920   -7.0720   -0.8030 o         1 MOL     -0.568389
     23 C9         -1.8080   -4.6350   -0.4550 c3        1 MOL      0.029900
     24 C10        -2.5000   -5.6200   -1.4330 c3        1 MOL     -0.253286
     25 C11        -3.4790   -4.9310   -2.3530 c3        1 MOL      0.046153
     26 C12        -4.5860   -5.9430   -2.7790 c3        1 MOL      0.019589
     27 N3         -5.7120   -5.2650   -3.4710 n4        1 MOL     -0.246523
     28 H8         -0.1650   -3.3530    0.7630 hn        1 MOL      0.214899
     29 H9         -1.1210   -6.1470    0.9650 h1        1 MOL      0.115422
     30 H10        -1.3230   -3.8870   -1.0810 hc        1 MOL      0.094854
     31 H11        -2.5490   -4.1760    0.1890 hc        1 MOL      0.094854
     32 H12        -2.9220   -6.4860   -0.9180 hc        1 MOL      0.083846
     33 H13        -1.7510   -6.0990   -2.0650 hc        1 MOL      0.083846
     34 H14        -2.9530   -4.6480   -3.2700 hc        1 MOL      0.024064
     35 H15        -3.9630   -4.0890   -1.8610 hc        1 MOL      0.024064
     36 H16        -5.0390   -6.4680   -1.9350 hx        1 MOL      0.081818
     37 H17        -4.1650   -6.6060   -3.5420 hx        1 MOL      0.081818
     38 H18        -5.4640   -4.5690   -4.1610 hn        1 MOL      0.293441
     39 H19        -6.2200   -5.9660   -3.9900 hn        1 MOL      0.293441
     40 H20        -6.3290   -4.8160   -2.8000 hn        1 MOL      0.293441
     41 N4          1.3830   -5.0550   -0.8900 n         1 MOL     -0.340047
     42 C13         2.4630   -5.4230   -1.8110 c3        1 MOL      0.074312
     43 C14         3.8770   -5.1420   -1.2980 c         1 MOL      0.442867
     44 O6          4.8620   -5.6380   -1.8710 o         1 MOL     -0.557285
     45 C15         2.2820   -4.4830   -3.0980 c3        1 MOL     -0.254223
     46 C16         2.0600   -3.0550   -2.8030 c         1 MOL      0.726408
     47 O7          0.9570   -2.5690   -2.8910 o         1 MOL     -0.723405
     48 O8          2.9920   -2.3350   -2.3180 o         1 MOL     -0.723405
     49 H21         1.3920   -4.1260   -0.4890 hn        1 MOL      0.361466
     50 H22         2.4790   -6.4750   -2.0760 h1        1 MOL      0.096944
     51 H23         1.5070   -4.8660   -3.7610 hc        1 MOL      0.072875
     52 H24         3.1750   -4.6230   -3.7130 hc        1 MOL      0.072875
     53 N5          4.0220   -4.3190   -0.2740 n         1 MOL     -0.181904
     54 C17         5.2370   -4.1650    0.5400 c3        1 MOL     -0.118068
     55 C18         5.9350   -2.7750    0.4750 c         1 MOL      0.425230
     56 O9          6.9020   -2.5580    1.1420 o         1 MOL     -0.559787
     57 H25         3.2510   -3.7480    0.0290 hn        1 MOL      0.041104
     58 H26         5.9290   -4.9580    0.2590 h1        1 MOL      0.111265
     59 H27         4.9860   -4.3990    1.5700 h1        1 MOL      0.111265
     60 N6          5.5590   -1.8770   -0.3720 n         1 MOL      0.002934
     61 C19         6.5120   -0.9020   -0.9820 c3        1 MOL     -0.165381
     62 C20         6.8570    0.2650   -0.0320 c         1 MOL      0.401459
     63 O10         7.8760    0.9880   -0.1640 o         1 MOL     -0.509698
     64 C21         6.0180   -0.3830   -2.3580 c3        1 MOL     -0.107572
     65 C22         4.6950    0.2940   -2.2180 c         1 MOL      0.580973
     66 N7          4.2940    1.0980   -3.2390 n         1 MOL     -0.737120
     67 O11         4.0220    0.3700   -1.1700 o         1 MOL     -0.525298
     68 H28         4.6770   -2.0830   -0.8190 hn        1 MOL      0.077882
     69 H29         7.4290   -1.4640   -1.1920 h1        1 MOL      0.142461
     70 H30         5.8030   -1.1890   -3.0640 hc        1 MOL      0.082782
     71 H31         6.7560    0.2690   -2.8200 hc        1 MOL      0.082782
     72 H32         4.7670    0.9750   -4.1250 hn        1 MOL      0.342522
     73 H33         3.5440    1.7760   -3.1180 hn        1 MOL      0.342522
     74 N8          5.9450    0.5190    0.9410 n         1 MOL     -0.042826
     75 C23         6.1520    1.5640    1.9780 c3        1 MOL     -0.376279
     76 C24         5.1450    2.7030    1.6760 c         1 MOL      0.695357
     77 O12         5.2200    3.7570    2.3140 o         1 MOL     -0.572484
     78 H34         5.1420   -0.0940    0.9690 hn        1 MOL      0.165014
     79 H35         7.1230    2.0560    1.9210 h1        1 MOL      0.161005
     80 H36         5.9710    1.1750    2.9860 h1        1 MOL      0.161005
     81 N9          4.1850    2.5130    0.7030 n         1 MOL     -0.450890
     82 C25         3.2700    3.5390    0.2960 c3        1 MOL      0.054769
     83 C26         1.8350    2.9500    0.1700 c         1 MOL      0.550738
     84 O13         1.6370    1.8740   -0.3690 o         1 MOL     -0.627512
     85 C27         3.7600    4.2780   -0.9560 c3        1 MOL     -0.057130
     86 C28         4.9890    5.0880   -0.7480 ca        1 MOL      0.034038
     87 C29         6.1400    4.5700   -1.1150 ca        1 MOL     -0.116295
     88 C30         4.8540    6.4200   -0.1920 ca        1 MOL     -0.116295
     89 C31         7.2810    5.3300   -0.9370 ca        1 MOL     -0.304384
     90 C32         6.0470    7.2040   -0.0740 ca        1 MOL     -0.304384
     91 C33         7.2910    6.6440   -0.3890 ca        1 MOL      0.417308
     92 O14         8.4180    7.3430   -0.2820 oh        1 MOL     -0.524312
     93 H37         4.1520    1.6750    0.1390 hn        1 MOL      0.274707
     94 H38         3.2880    4.2560    1.1130 h1        1 MOL      0.060818
     95 H39         3.0640    4.9300   -1.4860 hc        1 MOL      0.022924
     96 H40         3.9220    3.4720   -1.6640 hc        1 MOL      0.022924
     97 H41         6.0960    3.6020   -1.5800 ha        1 MOL      0.121898
     98 H42         3.9460    6.8210    0.2320 ha        1 MOL      0.121898
     99 H43         8.2340    4.9730   -1.2810 ha        1 MOL      0.142734
    100 H44         6.1240    8.2080    0.3150 ha        1 MOL      0.142734
    101 H45         8.4040    8.1190    0.2780 ho        1 MOL      0.385806
    102 N10         0.8420    3.5700    0.7270 n         1 MOL     -0.521450
    103 C34        -0.5270    3.1080    0.8380 c3        1 MOL      0.358311
    104 C35        -1.3880    4.1870    0.3030 c         1 MOL      0.397806
    105 O15        -1.0450    5.3640    0.1420 o         1 MOL     -0.560272
    106 C36        -0.7460    2.7420    2.3450 c3        1 MOL     -0.043954
    107 C37         0.0030    1.4240    2.7110 c3        1 MOL      0.433755
    108 C38        -2.2240    2.7070    2.8900 c3        1 MOL     -0.186381
    109 C39        -0.2710    0.8130    4.1020 c3        1 MOL     -0.351967
    110 H46         1.0680    4.4490    1.1710 hn        1 MOL      0.282847
    111 H47        -0.6790    2.2280    0.2100 h1        1 MOL     -0.045249
    112 H48        -0.1560    3.5170    2.8330 hc        1 MOL     -0.015316
    113 H49         1.0770    1.5990    2.7260 hc        1 MOL     -0.085099
    114 H50        -0.3250    0.6170    2.0590 hc        1 MOL     -0.085099
    115 H51        -2.2210    2.5490    3.9690 hc        1 MOL      0.028779
    116 H52        -2.6500    3.6920    2.6740 hc        1 MOL      0.028779
    117 H53        -2.7880    1.9390    2.3500 hc        1 MOL      0.028779
    118 H54        -0.3400    1.5130    4.9380 hc        1 MOL      0.076170
    119 H55        -1.1720    0.2080    4.0420 hc        1 MOL      0.076170
    120 H56         0.5390    0.1230    4.3160 hc        1 MOL      0.076170
    121 N11        -2.5740    3.7630   -0.0790 n         1 MOL     -0.071512
    122 C40        -3.6540    4.5580   -0.7220 c3        1 MOL     -0.023926
    123 C41        -5.0560    4.0990   -0.1210 c         1 MOL      0.432215
    124 O16        -5.2030    3.1410    0.6860 o         1 MOL     -0.467064
    125 C42        -3.6740    4.1440   -2.2070 c3        1 MOL     -0.253451
    126 O17        -4.2560    2.8590   -2.3300 oh        1 MOL     -0.467828
    127 H57        -2.7030    2.7670   -0.0400 hn        1 MOL      0.129172
    128 H58        -3.4880    5.5990   -0.4270 h1        1 MOL      0.104216
    129 H59        -2.6550    4.0000   -2.5620 h1        1 MOL      0.139747
    130 H60        -4.2410    4.8550   -2.8140 h1        1 MOL      0.139747
    131 H61        -4.0460    2.4390   -3.1670 ho        1 MOL      0.402414
    132 N12        -6.0750    4.7890   -0.5820 n         1 MOL     -0.324967
    133 C43        -7.4130    4.5750   -0.1180 c3        1 MOL      0.026735
    134 C44        -8.0270    3.1750   -0.3460 c         1 MOL      0.397504
    135 O18        -8.7700    2.7000    0.5090 o         1 MOL     -0.491692
    136 C45        -8.2830    5.7090   -0.6740 c3        1 MOL     -0.306567
    137 H62        -5.9750    5.5900   -1.1910 hn        1 MOL      0.276633
    138 H63        -7.3470    4.8160    0.9390 h1        1 MOL      0.122544
    139 H64        -9.3440    5.5900   -0.4150 hc        1 MOL      0.099608
    140 H65        -8.1280    6.7260   -0.3200 hc        1 MOL      0.099608
    141 H66        -8.2020    5.7420   -1.7670 hc        1 MOL      0.099608
    142 N13        -7.6520    2.4620   -1.4230 n         1 MOL     -0.208679
    143 C46        -8.0030    1.1190   -1.7570 c3        1 MOL      0.003038
    144 C47        -7.2560   -0.0290   -1.0210 c         1 MOL      0.387467
    145 O19        -7.8730   -1.0400   -0.8770 o         1 MOL     -0.496092
    146 C48        -7.8900    0.8170   -3.2300 c3        1 MOL     -0.290120
    147 H67        -7.0510    2.9100   -2.0960 hn        1 MOL      0.209580
    148 H68        -9.0570    1.0640   -1.5080 h1        1 MOL      0.111780
    149 H69        -6.8890    0.7150   -3.6680 hc        1 MOL      0.078344
    150 H70        -8.2540   -0.2110   -3.2140 hc        1 MOL      0.078344
    151 H71        -8.4380    1.5610   -3.8210 hc        1 MOL      0.078344
    152 N14        -6.0090    0.2200   -0.7820 n         1 MOL     -0.044727
    153 C49        -5.2310   -0.5680    0.1960 c3        1 MOL     -0.426627
    154 C50        -5.8120   -0.4980    1.5720 c         1 MOL      0.548147
    155 O20        -5.8990   -1.5020    2.2140 o         1 MOL     -0.536820
    156 C51        -3.8460   -0.1220    0.2810 c3        1 MOL      0.146364
    157 C52        -3.0460   -0.7920   -0.8260 c3        1 MOL     -0.048918
    158 C53        -1.4800   -0.5960   -0.6370 c         1 MOL      0.691093
    159 O21        -0.9210    0.1920   -1.3740 o         1 MOL     -0.727673
    160 O22        -0.7790   -1.3370    0.0310 o         1 MOL     -0.727673
    161 H72        -5.6580    1.1400   -1.0230 hn        1 MOL      0.067964
    162 H73        -5.1970   -1.5740   -0.2330 h1        1 MOL      0.179834
    163 H74        -3.3570   -0.4600    1.2010 hc        1 MOL      0.051109
    164 H75        -3.8420    0.9660    0.2070 hc        1 MOL      0.051109
    165 H76        -3.4150   -0.5190   -1.8090 hc        1 MOL     -0.038629
    166 H77        -3.2250   -1.8660   -0.7500 hc        1 MOL     -0.038629
    167 N15        -6.3250    0.6230    1.9840 n         1 MOL     -0.140928
    168 C54        -6.9740    0.7860    3.2910 c3        1 MOL     -0.260319
    169 H78        -7.2400   -0.1930    3.6890 h1        1 MOL      0.110066
    170 H79        -6.2890    1.2820    3.9780 h1        1 MOL      0.110066
    171 H80        -7.8760    1.3890    3.1780 h1        1 MOL      0.110066
    172 H81        -6.3730    1.4610    1.4140 hn        1 MOL      0.192211
    173 Ca1         1.4790   -0.6420   -1.0610 Ca        1 MOL      1.756917
    174 O23         1.1430    0.5640   -3.4270 oh        1 MOL     -0.846123
    175 H82         0.3240    1.0060   -3.6420 ho        1 MOL      0.413653
    176 H83         1.6610    0.6010   -4.2280 ho        1 MOL      0.413653
@<TRIPOS>BOND
     1    1    2 1   
     2    1    4 1   
     3    1    5 1   
     4    1    6 1   
     5    2    3 2   
     6    2    7 1   
     7    7    8 1   
     8    7   15 1   
     9    8    9 1   
    10    8   11 1   
    11    8   16 1   
    12    9   10 2   
    13    9   19 1   
    14   11   12 1   
    15   11   17 1   
    16   11   18 1   
    17   12   13 1   
    18   12   14 1   
    19   19   20 1   
    20   19   28 1   
    21   20   21 1   
    22   20   23 1   
    23   20   29 1   
    24   21   22 2   
    25   21   41 1   
    26   23   24 1   
    27   23   30 1   
    28   23   31 1   
    29   24   25 1   
    30   24   32 1   
    31   24   33 1   
    32   25   26 1   
    33   25   34 1   
    34   25   35 1   
    35   26   27 1   
    36   26   36 1   
    37   26   37 1   
    38   27   38 1   
    39   27   39 1   
    40   27   40 1   
    41   41   42 1   
    42   41   49 1   
    43   42   43 1   
    44   42   45 1   
    45   42   50 1   
    46   43   44 2   
    47   43   53 1   
    48   45   46 1   
    49   45   51 1   
    50   45   52 1   
    51   46   47 1   
    52   46   48 1   
    53   53   54 1   
    54   53   57 1   
    55   54   55 1   
    56   54   58 1   
    57   54   59 1   
    58   55   56 2   
    59   55   60 1   
    60   60   61 1   
    61   60   68 1   
    62   61   62 1   
    63   61   64 1   
    64   61   69 1   
    65   62   63 2   
    66   62   74 1   
    67   64   65 1   
    68   64   70 1   
    69   64   71 1   
    70   65   66 1   
    71   65   67 2   
    72   66   72 1   
    73   66   73 1   
    74   74   75 1   
    75   74   78 1   
    76   75   76 1   
    77   75   79 1   
    78   75   80 1   
    79   76   77 2   
    80   76   81 1   
    81   81   82 1   
    82   81   93 1   
    83   82   83 1   
    84   82   85 1   
    85   82   94 1   
    86   83   84 2   
    87   83  102 1   
    88   85   86 1   
    89   85   95 1   
    90   85   96 1   
    91   86   87 ar  
    92   86   88 ar  
    93   87   89 ar  
    94   87   97 1   
    95   88   90 ar  
    96   88   98 1   
    97   89   91 ar  
    98   89   99 1   
    99   90   91 ar  
   100   90  100 1   
   101   91   92 1   
   102   92  101 1   
   103  102  103 1   
   104  102  110 1   
   105  103  104 1   
   106  103  106 1   
   107  103  111 1   
   108  104  105 2   
   109  104  121 1   
   110  106  107 1   
   111  106  108 1   
   112  106  112 1   
   113  107  109 1   
   114  107  113 1   
   115  107  114 1   
   116  108  115 1   
   117  108  116 1   
   118  108  117 1   
   119  109  118 1   
   120  109  119 1   
   121  109  120 1   
   122  121  122 1   
   123  121  127 1   
   124  122  123 1   
   125  122  125 1   
   126  122  128 1   
   127  123  124 2   
   128  123  132 1   
   129  125  126 1   
   130  125  129 1   
   131  125  130 1   
   132  126  131 1   
   133  132  133 1   
   134  132  137 1   
   135  133  134 1   
   136  133  136 1   
   137  133  138 1   
   138  134  135 2   
   139  134  142 1   
   140  136  139 1   
   141  136  140 1   
   142  136  141 1   
   143  142  143 1   
   144  142  147 1   
   145  143  144 1   
   146  143  146 1   
   147  143  148 1   
   148  144  145 2   
   149  144  152 1   
   150  146  149 1   
   151  146  150 1   
   152  146  151 1   
   153  152  153 1   
   154  152  161 1   
   155  153  154 1   
   156  153  156 1   
   157  153  162 1   
   158  154  155 2   
   159  154  167 1   
   160  156  157 1   
   161  156  163 1   
   162  156  164 1   
   163  157  158 1   
   164  157  165 1   
   165  157  166 1   
   166  158  159 1   
   167  158  160 1   
   168  167  168 1   
   169  167  172 1   
   170  168  169 1   
   171  168  170 1   
   172  168  171 1   
   173  174  175 1   
   174  174  176 1   
@<TRIPOS>SUBSTRUCTURE
     1 MOL         1 TEMP              0 ****  ****    0 ROOT
