@<TRIPOS>MOLECULE
MOL
  186   183     1     0     0
SMALL
resp


@<TRIPOS>ATOM
      1 C1          0.0050    1.6990    6.2340 c3        1 MOL     -0.385364
      2 C2         -0.2500    1.4890    4.7020 c         1 MOL      0.789118
      3 O1          0.6390    1.5390    3.8960 o         1 MOL     -0.638141
      4 H1         -0.6440    2.4920    6.6050 hc        1 MOL      0.096870
      5 H2         -0.2100    0.7740    6.7690 hc        1 MOL      0.096870
      6 H3          1.0470    1.9780    6.3950 hc        1 MOL      0.096870
      7 N1         -1.5490    1.2910    4.3620 n         1 MOL     -0.669943
      8 C3         -2.1050    1.2620    2.9970 c3        1 MOL      0.114701
      9 C4         -2.3650    2.6860    2.4220 c         1 MOL      0.527195
     10 O2         -3.2650    3.3860    2.7980 o         1 MOL     -0.550758
     11 C5         -3.4370    0.4640    2.9390 c3        1 MOL     -0.029996
     12 C6         -4.0540    0.2590    1.5870 c         1 MOL      0.557226
     13 O3         -3.4390    0.5850    0.5660 o         1 MOL     -0.587238
     14 O4         -5.2150   -0.2050    1.6570 o         1 MOL     -0.587238
     15 H4         -2.2650    1.1160    5.0560 hn        1 MOL      0.341284
     16 H5         -1.3940    0.7430    2.3480 h1        1 MOL     -0.038203
     17 H6         -4.1370    0.8210    3.6910 hc        1 MOL      0.017648
     18 H7         -3.2330   -0.5270    3.3550 hc        1 MOL      0.017648
     19 N2         -1.5020    3.1690    1.5290 n         1 MOL     -0.286920
     20 C7         -1.4780    4.5280    0.9990 c3        1 MOL     -0.045666
     21 C8         -2.4370    4.8390   -0.1520 c         1 MOL      0.545804
     22 O5         -2.8310    6.0260   -0.2670 o         1 MOL     -0.595543
     23 C9         -0.0010    4.9620    0.6720 c3        1 MOL     -0.156865
     24 C10         0.2170    6.4190    0.2750 c3        1 MOL      0.028793
     25 C11         1.6360    6.9500    0.1370 c3        1 MOL     -0.002399
     26 C12         2.3720    6.8960    1.5060 c3        1 MOL      0.110185
     27 N3          3.7590    7.3650    1.4500 n4        1 MOL     -0.529238
     28 H8         -0.7460    2.5550    1.2340 hn        1 MOL      0.247718
     29 H9         -1.8220    5.2010    1.7980 h1        1 MOL      0.092178
     30 H10         0.4320    4.4110   -0.1690 hc        1 MOL      0.063460
     31 H11         0.5690    4.7020    1.5680 hc        1 MOL      0.063460
     32 H12        -0.2830    7.0820    0.9780 hc        1 MOL      0.036200
     33 H13        -0.2920    6.5460   -0.6680 hc        1 MOL      0.036200
     34 H14         1.4980    7.9780   -0.1980 hc        1 MOL      0.015471
     35 H15         2.1830    6.3880   -0.6310 hc        1 MOL      0.015471
     36 H16         2.4120    5.8470    1.7900 hx        1 MOL      0.064753
     37 H17         1.7630    7.4370    2.2370 hx        1 MOL      0.064753
     38 H18         4.1110    7.3550    2.3960 hn        1 MOL      0.368745
     39 H19         4.3380    6.7110    0.9300 hn        1 MOL      0.368745
     40 H20         3.8560    8.3490    1.2700 hn        1 MOL      0.368745
     41 N4         -2.9900    3.7930   -0.8120 n         1 MOL     -0.253482
     42 C13        -4.0720    3.9450   -1.7780 c3        1 MOL     -0.001299
     43 C14        -5.4180    3.2560   -1.4080 c         1 MOL      0.409862
     44 O6         -6.3990    3.3830   -2.1230 o         1 MOL     -0.526195
     45 C15        -3.7110    3.5530   -3.2350 c3        1 MOL     -0.291348
     46 C16        -3.0200    2.2300   -3.4690 c         1 MOL      0.822033
     47 O7         -2.6900    1.9700   -4.6140 o         1 MOL     -0.694656
     48 O8         -2.8730    1.3470   -2.6120 o         1 MOL     -0.694656
     49 H21        -2.6400    2.8540   -0.6870 hn        1 MOL      0.091907
     50 H22        -4.2840    5.0000   -1.9530 h1        1 MOL      0.124865
     51 H23        -3.0380    4.3460   -3.5670 hc        1 MOL      0.077845
     52 H24        -4.6250    3.5360   -3.8230 hc        1 MOL      0.077845
     53 N5         -5.5270    2.7360   -0.1820 n         1 MOL     -0.251837
     54 C17        -6.8340    2.2580    0.3880 c3        1 MOL     -0.195357
     55 C18        -7.4500    1.0180   -0.4310 c         1 MOL      0.600924
     56 O9         -8.5660    0.7510   -0.0570 o         1 MOL     -0.584978
     57 H25        -4.7090    2.6950    0.4080 hn        1 MOL      0.225533
     58 H26        -7.5550    3.0750    0.2860 h1        1 MOL      0.110662
     59 H27        -6.7700    1.9160    1.4240 h1        1 MOL      0.110662
     60 N6         -6.7240    0.3860   -1.3560 n         1 MOL     -0.365935
     61 C19        -7.2370   -0.7840   -2.0870 c3        1 MOL     -0.047108
     62 C20        -7.2850   -2.0150   -1.1510 c         1 MOL      0.411753
     63 O10        -7.7450   -3.0430   -1.6380 o         1 MOL     -0.549198
     64 C21        -6.3040   -1.2160   -3.2560 c3        1 MOL     -0.242386
     65 C22        -4.8280   -1.5190   -2.8130 c         1 MOL      0.818496
     66 O11        -4.0700   -1.8460   -3.7430 o         1 MOL     -0.725895
     67 O12        -4.5460   -1.3130   -1.6300 o         1 MOL     -0.725895
     68 H28        -5.7370    0.5670   -1.5060 hn        1 MOL      0.328396
     69 H29        -8.2500   -0.5700   -2.4260 h1        1 MOL      0.126082
     70 H30        -6.1980   -0.3560   -3.9070 hc        1 MOL      0.085917
     71 H31        -6.7030   -2.0820   -3.7690 hc        1 MOL      0.085917
     72 N7         -6.9120   -1.9760    0.1120 n         1 MOL     -0.095231
     73 C23        -6.9270   -3.0190    1.1100 c3        1 MOL     -0.238326
     74 C24        -5.5620   -3.5390    1.5500 c         1 MOL      0.589577
     75 O13        -5.4820   -4.5110    2.2960 o         1 MOL     -0.596123
     76 H32        -6.4220   -1.1270    0.3500 hn        1 MOL      0.233572
     77 H33        -7.4590   -3.8360    0.6150 h1        1 MOL      0.121418
     78 H34        -7.4760   -2.5580    1.9290 h1        1 MOL      0.121418
     79 N8         -4.4480   -3.1330    0.9370 n         1 MOL     -0.031111
     80 C25        -3.2400   -3.9190    0.7340 c3        1 MOL     -0.045141
     81 C26        -1.9720   -3.1220    1.0720 c         1 MOL      0.398202
     82 O14        -1.9730   -1.8550    0.9950 o         1 MOL     -0.409253
     83 C27        -3.0360   -4.3590   -0.7480 c3        1 MOL      0.297956
     84 C28        -4.3680   -4.8870   -1.3500 c3        1 MOL     -0.458639
     85 O15        -2.4850   -3.2910   -1.4990 oh        1 MOL     -0.727402
     86 H35        -4.5510   -2.2790    0.4070 hn        1 MOL     -0.220365
     87 H36        -3.3160   -4.8110    1.3600 h1        1 MOL      0.076349
     88 H37        -2.2460   -5.0930   -0.7350 h1        1 MOL      0.002285
     89 H38        -2.4360   -3.6530   -2.3890 ho        1 MOL      0.443760
     90 H39        -4.6690   -5.8180   -0.8760 hc        1 MOL      0.145419
     91 H40        -5.1800   -4.1660   -1.3490 hc        1 MOL      0.145419
     92 H41        -4.2120   -5.2880   -2.3580 hc        1 MOL      0.145419
     93 N9         -0.8450   -3.7550    1.2030 n         1 MOL     -0.327009
     94 C29         0.4070   -3.1950    1.3980 c3        1 MOL     -0.062589
     95 C30         1.3470   -3.8180    0.2760 c         1 MOL      0.557364
     96 O16         1.5030   -5.0520    0.2300 o         1 MOL     -0.568140
     97 C31         0.8540   -3.3580    2.8520 c3        1 MOL      0.054818
     98 C32         0.1710   -2.3200    3.7810 c3        1 MOL      0.055031
     99 C33         2.3940   -3.1400    2.9230 c3        1 MOL     -0.423649
    100 C34         0.4240   -2.7150    5.2760 c3        1 MOL     -0.289681
    101 H42        -0.8860   -4.7660    1.1920 hn        1 MOL      0.263910
    102 H43         0.4070   -2.1580    1.0410 h1        1 MOL     -0.041440
    103 H44         0.5820   -4.3180    3.2840 hc        1 MOL      0.054944
    104 H45        -0.8820   -2.3630    3.4990 hc        1 MOL      0.050909
    105 H46         0.4580   -1.2910    3.5690 hc        1 MOL      0.050909
    106 H47         2.6840   -2.0900    2.8660 hc        1 MOL      0.099044
    107 H48         2.7660   -3.3830    3.9160 hc        1 MOL      0.099044
    108 H49         2.9090   -3.8570    2.2780 hc        1 MOL      0.099044
    109 H50         1.3880   -2.5100    5.7340 hc        1 MOL      0.074855
    110 H51        -0.3250   -2.2640    5.9250 hc        1 MOL      0.074855
    111 H52         0.3600   -3.8000    5.2420 hc        1 MOL      0.074855
    112 N10         2.0030   -2.9260   -0.4880 n         1 MOL      0.001199
    113 C35         2.9850   -3.2520   -1.4750 c3        1 MOL     -0.170258
    114 C36         4.3370   -2.8660   -0.8670 c         1 MOL      0.451176
    115 O17         4.4380   -2.1660    0.1600 o         1 MOL     -0.416758
    116 C37         2.6970   -2.3990   -2.7450 c3        1 MOL      0.386765
    117 C38         1.4410   -2.9370   -3.4230 c3        1 MOL     -0.221966
    118 O18         2.6060   -1.0370   -2.5140 oh        1 MOL     -0.694573
    119 H53         1.6840   -1.9680   -0.4560 hn        1 MOL      0.021332
    120 H54         2.9000   -4.2950   -1.7620 h1        1 MOL      0.075363
    121 H55         3.5050   -2.5580   -3.4740 h1        1 MOL     -0.025759
    122 H56         1.7770   -0.8820   -2.0610 ho        1 MOL      0.514169
    123 H57         1.0920   -2.3440   -4.2640 hc        1 MOL      0.052069
    124 H58         1.6940   -3.8930   -3.8870 hc        1 MOL      0.052069
    125 H59         0.6850   -3.0610   -2.6380 hc        1 MOL      0.052069
    126 N11         5.4890   -3.2740   -1.4530 n         1 MOL     -0.333192
    127 C39         6.8230   -3.1350   -0.8720 c3        1 MOL     -0.191251
    128 C40         7.0100   -1.6710   -0.4060 c         1 MOL      0.415618
    129 O19         7.4390   -1.3070    0.7410 o         1 MOL     -0.492443
    130 C41         7.8490   -3.6480   -1.8330 c3        1 MOL      0.468459
    131 C42         9.1980   -3.7250   -1.1500 c3        1 MOL     -0.437816
    132 O20         7.5380   -4.8740   -2.4550 oh        1 MOL     -0.576809
    133 H60         5.3430   -3.7130   -2.3510 hn        1 MOL      0.223193
    134 H61         6.8190   -3.7560    0.0230 h1        1 MOL      0.164010
    135 H62         7.9010   -2.8480   -2.5670 h1        1 MOL     -0.069856
    136 H63         6.8670   -4.7110   -3.1160 ho        1 MOL      0.378872
    137 H64         9.1270   -4.5770   -0.4770 hc        1 MOL      0.129455
    138 H65         9.9470   -3.9600   -1.9000 hc        1 MOL      0.129455
    139 H66         9.5030   -2.8380   -0.6020 hc        1 MOL      0.129455
    140 N12         6.6080   -0.7090   -1.2210 n         1 MOL     -0.334464
    141 C43         6.6240    0.7460   -0.9400 c3        1 MOL     -0.023235
    142 C44         5.8650    1.1830    0.2850 c         1 MOL      0.347267
    143 O21         6.3050    2.1280    0.9640 o         1 MOL     -0.530934
    144 C45         6.0300    1.4700   -2.1940 c3        1 MOL     -0.072632
    145 C46         6.1950    2.9670   -2.2500 c3        1 MOL     -0.081050
    146 C47         7.6230    3.5280   -2.2150 c3        1 MOL     -0.034353
    147 C48         8.2770    3.3710   -3.5230 c3        1 MOL     -0.042384
    148 N13         9.6410    3.9690   -3.5590 n4        1 MOL     -0.130103
    149 H67         6.1130   -1.1220   -2.0060 hn        1 MOL      0.225596
    150 H68         7.6510    1.0710   -0.7580 h1        1 MOL      0.131020
    151 H69         4.9570    1.2920   -2.2250 hc        1 MOL      0.050876
    152 H70         6.4340    1.0630   -3.1170 hc        1 MOL      0.050876
    153 H71         5.7060    3.4820   -1.4310 hc        1 MOL      0.061774
    154 H72         5.6900    3.4150   -3.1000 hc        1 MOL      0.061774
    155 H73         8.1050    3.0130   -1.3820 hc        1 MOL      0.031306
    156 H74         7.5850    4.5370   -1.8200 hc        1 MOL      0.031306
    157 H75         7.6450    3.8420   -4.2810 hx        1 MOL      0.092232
    158 H76         8.3180    2.2840   -3.6420 hx        1 MOL      0.092232
    159 H77         9.6640    4.9820   -3.4910 hn        1 MOL      0.225492
    160 H78        10.1650    3.6460   -2.7560 hn        1 MOL      0.225492
    161 H79        10.2080    3.8140   -4.3830 hn        1 MOL      0.225492
    162 N14         4.7940    0.4750    0.5760 n         1 MOL     -0.118660
    163 C49         4.0420    0.6230    1.8640 c3        1 MOL     -0.321876
    164 C50         4.6410   -0.1090    3.0530 c         1 MOL      0.534504
    165 O22         4.4660    0.2700    4.2020 o         1 MOL     -0.549966
    166 C51         2.5730    0.0950    1.4670 c3        1 MOL      0.283838
    167 C52         1.9640    1.0310    0.3670 c3        1 MOL     -0.178505
    168 C53         0.6470    0.5330   -0.3100 c         1 MOL      0.677774
    169 O23        -0.4000    1.2070   -0.1600 o         1 MOL     -0.651725
    170 O24         0.5670   -0.5250   -0.9500 o         1 MOL     -0.651725
    171 H80         4.4980   -0.1940   -0.1190 hn        1 MOL      0.242992
    172 H81         3.9950    1.6940    2.0440 h1        1 MOL      0.148198
    173 H82         1.9110    0.1250    2.3380 hc        1 MOL      0.034029
    174 H83         2.6790   -0.9300    1.1050 hc        1 MOL      0.034029
    175 H84         2.6940    1.0220   -0.4360 hc        1 MOL     -0.003839
    176 H85         1.8220    2.0740    0.6650 hc        1 MOL     -0.003839
    177 N15         5.4800   -1.1280    2.7710 n         1 MOL     -0.066988
    178 C54         6.0800   -1.9040    3.8140 c3        1 MOL     -0.339467
    179 H86         5.6240   -1.6420    4.7700 h1        1 MOL      0.115398
    180 H87         5.9240   -2.9640    3.6160 h1        1 MOL      0.115398
    181 H88         7.1490   -1.6950    3.8540 h1        1 MOL      0.115398
    182 H89         5.6630   -1.3580    1.7990 hn        1 MOL      0.157666
    183 Ca1        -2.0660   -0.5380   -1.2620 Ca        1 MOL      1.727728
    184 O25        -0.6760    0.0440   -3.6690 oh        1 MOL     -0.994192
    185 H90        -1.4100    0.5310   -4.0190 ho        1 MOL      0.439424
    186 H91        -0.2390   -0.3280   -4.4390 ho        1 MOL      0.439424
@<TRIPOS>BOND
     1    1    2 1   
     2    1    4 1   
     3    1    5 1   
     4    1    6 1   
     5    2    3 2   
     6    2    7 1   
     7    7    8 1   
     8    7   15 1   
     9    8    9 1   
    10    8   11 1   
    11    8   16 1   
    12    9   10 2   
    13    9   19 1   
    14   11   12 1   
    15   11   17 1   
    16   11   18 1   
    17   12   13 1   
    18   12   14 1   
    19   19   20 1   
    20   19   28 1   
    21   20   21 1   
    22   20   23 1   
    23   20   29 1   
    24   21   22 2   
    25   21   41 1   
    26   23   24 1   
    27   23   30 1   
    28   23   31 1   
    29   24   25 1   
    30   24   32 1   
    31   24   33 1   
    32   25   26 1   
    33   25   34 1   
    34   25   35 1   
    35   26   27 1   
    36   26   36 1   
    37   26   37 1   
    38   27   38 1   
    39   27   39 1   
    40   27   40 1   
    41   41   42 1   
    42   41   49 1   
    43   42   43 1   
    44   42   45 1   
    45   42   50 1   
    46   43   44 2   
    47   43   53 1   
    48   45   46 1   
    49   45   51 1   
    50   45   52 1   
    51   46   47 1   
    52   46   48 1   
    53   53   54 1   
    54   53   57 1   
    55   54   55 1   
    56   54   58 1   
    57   54   59 1   
    58   55   56 2   
    59   55   60 1   
    60   60   61 1   
    61   60   68 1   
    62   61   62 1   
    63   61   64 1   
    64   61   69 1   
    65   62   63 2   
    66   62   72 1   
    67   64   65 1   
    68   64   70 1   
    69   64   71 1   
    70   65   66 1   
    71   65   67 1   
    72   72   73 1   
    73   72   76 1   
    74   73   74 1   
    75   73   77 1   
    76   73   78 1   
    77   74   75 2   
    78   74   79 1   
    79   79   80 1   
    80   79   86 1   
    81   80   81 1   
    82   80   83 1   
    83   80   87 1   
    84   81   82 2   
    85   81   93 1   
    86   83   84 1   
    87   83   85 1   
    88   83   88 1   
    89   84   90 1   
    90   84   91 1   
    91   84   92 1   
    92   85   89 1   
    93   93   94 1   
    94   93  101 1   
    95   94   95 1   
    96   94   97 1   
    97   94  102 1   
    98   95   96 2   
    99   95  112 1   
   100   97   98 1   
   101   97   99 1   
   102   97  103 1   
   103   98  100 1   
   104   98  104 1   
   105   98  105 1   
   106   99  106 1   
   107   99  107 1   
   108   99  108 1   
   109  100  109 1   
   110  100  110 1   
   111  100  111 1   
   112  112  113 1   
   113  112  119 1   
   114  113  114 1   
   115  113  116 1   
   116  113  120 1   
   117  114  115 2   
   118  114  126 1   
   119  116  117 1   
   120  116  118 1   
   121  116  121 1   
   122  117  123 1   
   123  117  124 1   
   124  117  125 1   
   125  118  122 1   
   126  126  127 1   
   127  126  133 1   
   128  127  128 1   
   129  127  130 1   
   130  127  134 1   
   131  128  129 2   
   132  128  140 1   
   133  130  131 1   
   134  130  132 1   
   135  130  135 1   
   136  131  137 1   
   137  131  138 1   
   138  131  139 1   
   139  132  136 1   
   140  140  141 1   
   141  140  149 1   
   142  141  142 1   
   143  141  144 1   
   144  141  150 1   
   145  142  143 2   
   146  142  162 1   
   147  144  145 1   
   148  144  151 1   
   149  144  152 1   
   150  145  146 1   
   151  145  153 1   
   152  145  154 1   
   153  146  147 1   
   154  146  155 1   
   155  146  156 1   
   156  147  148 1   
   157  147  157 1   
   158  147  158 1   
   159  148  159 1   
   160  148  160 1   
   161  148  161 1   
   162  162  163 1   
   163  162  171 1   
   164  163  164 1   
   165  163  166 1   
   166  163  172 1   
   167  164  165 2   
   168  164  177 1   
   169  166  167 1   
   170  166  173 1   
   171  166  174 1   
   172  167  168 1   
   173  167  175 1   
   174  167  176 1   
   175  168  169 1   
   176  168  170 1   
   177  177  178 1   
   178  177  182 1   
   179  178  179 1   
   180  178  180 1   
   181  178  181 1   
   182  184  185 1   
   183  184  186 1   
@<TRIPOS>SUBSTRUCTURE
     1 MOL         1 TEMP              0 ****  ****    0 ROOT
