@<TRIPOS>MOLECULE
MOL
  183   181     1     0     0
SMALL
resp


@<TRIPOS>ATOM
      1 C1         -0.7320    1.8010    6.5550 c3        1 MOL     -0.331796
      2 C2         -0.9580    1.6960    5.0480 c         1 MOL      0.787790
      3 O1         -0.0400    1.8800    4.2300 o         1 MOL     -0.601712
      4 H1         -0.0820    2.6500    6.7660 hc        1 MOL      0.073337
      5 H2         -1.6890    1.9450    7.0570 hc        1 MOL      0.073337
      6 H3         -0.2640    0.8860    6.9180 hc        1 MOL      0.073337
      7 N1         -2.2320    1.6510    4.6210 n         1 MOL     -0.653075
      8 C3         -2.6760    1.5560    3.2470 c3        1 MOL      0.034405
      9 C4         -2.9510    2.9540    2.7460 c         1 MOL      0.722140
     10 O2         -3.5650    3.8020    3.4500 o         1 MOL     -0.610954
     11 C5         -3.8710    0.6420    3.0960 c3        1 MOL     -0.220963
     12 C6         -4.3970    0.4880    1.6810 c         1 MOL      0.830284
     13 O3         -5.3940   -0.2730    1.4970 o         1 MOL     -0.743820
     14 O4         -3.7870    1.0240    0.7740 o         1 MOL     -0.743820
     15 H4         -2.9880    1.6110    5.2860 hn        1 MOL      0.329593
     16 H5         -1.7710    1.1600    2.7700 h1        1 MOL      0.085411
     17 H6         -4.6530    1.1130    3.6890 hc        1 MOL      0.046130
     18 H7         -3.6150   -0.3560    3.4350 hc        1 MOL      0.046130
     19 N2         -2.4100    3.3400    1.5890 n         1 MOL     -0.504083
     20 C7         -2.5410    4.6610    0.9650 c3        1 MOL     -0.027938
     21 C8         -3.7650    4.7470    0.0440 c         1 MOL      0.649328
     22 O5         -4.5340    5.7140    0.2370 o         1 MOL     -0.610801
     23 C9         -1.1960    5.1820    0.3270 c3        1 MOL      0.191576
     24 C10        -0.1910    5.3100    1.5020 c3        1 MOL      0.010606
     25 C11        -1.4650    6.5340   -0.3240 c3        1 MOL     -0.235331
     26 C12         1.1850    5.8570    1.2890 c3        1 MOL     -0.063808
     27 H8         -2.0900    2.6000    0.9770 hn        1 MOL      0.217311
     28 H9         -2.7840    5.3560    1.7690 h1        1 MOL      0.069259
     29 H10        -0.8560    4.4780   -0.4330 hc        1 MOL      0.015811
     30 H11        -0.0180    4.3230    1.9230 hc        1 MOL      0.010965
     31 H12        -0.5510    5.9430    2.3030 hc        1 MOL      0.010965
     32 H13        -2.0650    7.1160    0.3760 hc        1 MOL      0.039898
     33 H14        -0.5520    7.0770   -0.5610 hc        1 MOL      0.039898
     34 H15        -1.9610    6.4560   -1.2980 hc        1 MOL      0.039898
     35 H16         1.1370    6.8070    0.7450 hc        1 MOL      0.006642
     36 H17         1.7100    6.0760    2.2170 hc        1 MOL      0.006642
     37 H18         1.8680    5.2680    0.6760 hc        1 MOL      0.006642
     38 N3         -4.1580    3.7170   -0.7150 n         1 MOL     -0.489657
     39 C13        -5.1400    3.8280   -1.7690 c3        1 MOL      0.048162
     40 C14        -6.3370    2.9180   -1.4300 c         1 MOL      0.463578
     41 O6         -7.3080    2.9430   -2.1900 o         1 MOL     -0.562748
     42 C15        -4.4030    3.6180   -3.1570 c3        1 MOL     -0.290640
     43 C16        -3.6870    2.2300   -3.2630 c         1 MOL      0.750504
     44 O7         -2.9530    2.1680   -4.3050 o         1 MOL     -0.688964
     45 O8         -3.8070    1.3470   -2.3740 o         1 MOL     -0.688964
     46 H19        -3.6810    2.8260   -0.7390 hn        1 MOL      0.287906
     47 H20        -5.5050    4.8510   -1.7820 h1        1 MOL      0.078120
     48 H21        -3.7640    4.4700   -3.4100 hc        1 MOL      0.086502
     49 H22        -5.1990    3.5790   -3.9010 hc        1 MOL      0.086502
     50 N4         -6.3020    2.1550   -0.3330 n         1 MOL     -0.169679
     51 C17        -7.5210    1.5810    0.2600 c3        1 MOL     -0.341238
     52 C18        -8.0010    0.3060   -0.3840 c         1 MOL      0.554760
     53 O9         -9.2010   -0.0320   -0.3220 o         1 MOL     -0.601195
     54 H23        -5.4540    2.0180    0.2020 hn        1 MOL      0.202121
     55 H24        -8.2480    2.3820    0.1380 h1        1 MOL      0.143505
     56 H25        -7.3400    1.4650    1.3290 h1        1 MOL      0.143505
     57 N5         -7.1300   -0.4650   -1.0490 n         1 MOL     -0.250513
     58 C19        -7.3490   -1.8180   -1.6890 c3        1 MOL      0.035964
     59 C20        -7.4820   -2.9430   -0.6740 c         1 MOL      0.421165
     60 O10        -8.2400   -3.9060   -0.9500 o         1 MOL     -0.597643
     61 C21        -6.3110   -2.0980   -2.7920 c3        1 MOL     -0.151651
     62 C22        -4.8300   -1.9640   -2.4030 c         1 MOL      0.695215
     63 O11        -3.8970   -1.6830   -3.1890 o         1 MOL     -0.721957
     64 O12        -4.5710   -1.9960   -1.2070 o         1 MOL     -0.721957
     65 H26        -6.1820   -0.1250   -1.0690 hn        1 MOL      0.179427
     66 H27        -8.3610   -1.7100   -2.0890 h1        1 MOL      0.076387
     67 H28        -6.6530   -1.3980   -3.5620 hc        1 MOL      0.046924
     68 H29        -6.5490   -3.0420   -3.2670 hc        1 MOL      0.046924
     69 N6         -6.7870   -2.8400    0.4250 n         1 MOL     -0.052981
     70 C23        -6.7910   -3.8520    1.4790 c3        1 MOL     -0.117416
     71 C24        -5.4210   -4.4490    1.8270 c         1 MOL      0.507207
     72 O13        -5.3370   -5.4760    2.4580 o         1 MOL     -0.578112
     73 H30        -6.0970   -2.1090    0.5120 hn        1 MOL      0.125531
     74 H31        -7.4120   -4.6370    1.0530 h1        1 MOL      0.066280
     75 H32        -7.3210   -3.4880    2.3580 h1        1 MOL      0.066280
     76 N7         -4.3790   -3.9430    1.1630 n         1 MOL     -0.184134
     77 C25        -2.9460   -4.3160    1.3170 c3        1 MOL     -0.026225
     78 C26        -1.9450   -3.1060    1.2630 c         1 MOL      0.491770
     79 O14        -2.2730   -1.9240    1.0620 o         1 MOL     -0.604989
     80 C27        -2.5920   -5.4780    0.2770 c3        1 MOL     -0.097938
     81 C28        -2.8370   -5.0440   -1.1460 c3        1 MOL     -0.088152
     82 C29        -1.6950   -4.2370   -1.7200 c         1 MOL      0.603629
     83 N8         -0.9120   -4.8830   -2.5600 n         1 MOL     -0.770711
     84 O15        -1.5830   -3.0230   -1.4760 o         1 MOL     -0.553380
     85 H33        -4.5630   -3.3510    0.3660 hn        1 MOL      0.204250
     86 H34        -2.8270   -4.7320    2.3160 h1        1 MOL      0.064296
     87 H35        -3.1850   -6.3570    0.5190 hc        1 MOL      0.035590
     88 H36        -1.5220   -5.7250    0.3000 hc        1 MOL      0.035590
     89 H37        -3.7900   -4.5400   -1.2520 hc        1 MOL      0.038963
     90 H38        -2.8760   -5.9400   -1.7650 hc        1 MOL      0.038963
     91 H39        -1.1570   -5.7030   -3.1010 hn        1 MOL      0.363692
     92 H40        -0.0980   -4.3260   -2.7910 hn        1 MOL      0.363692
     93 N9         -0.6710   -3.4620    1.5750 n         1 MOL     -0.289525
     94 C30         0.4760   -2.5340    1.7720 c3        1 MOL     -0.051027
     95 C31         1.7420   -3.1020    0.9780 c         1 MOL      0.360308
     96 O16         2.1960   -4.2140    1.2870 o         1 MOL     -0.548234
     97 C32         0.7860   -2.3910    3.2690 c3        1 MOL      0.176959
     98 C33         2.0370   -1.5730    3.7180 c3        1 MOL     -0.248414
     99 C34        -0.5060   -1.9380    4.0240 c3        1 MOL     -0.248414
    100 H41        -0.5340   -4.4620    1.6940 hn        1 MOL      0.249482
    101 H42         0.2490   -1.5230    1.4250 h1        1 MOL      0.091808
    102 H43         0.8500   -3.3820    3.7040 hc        1 MOL     -0.021828
    103 H44         1.9850   -0.5440    3.3690 hc        1 MOL      0.056064
    104 H45         2.2330   -1.4290    4.7820 hc        1 MOL      0.056064
    105 H46         2.9230   -2.0110    3.2480 hc        1 MOL      0.056064
    106 H47        -0.2400   -1.6560    5.0400 hc        1 MOL      0.056064
    107 H48        -1.0050   -1.0870    3.5450 hc        1 MOL      0.056064
    108 H49        -1.1830   -2.7760    4.1800 hc        1 MOL      0.056064
    109 N10         2.1350   -2.3340   -0.0080 n         1 MOL     -0.067476
    110 C35         3.2950   -2.5680   -0.8540 c3        1 MOL      0.079626
    111 C36         4.6500   -2.1150   -0.3180 c         1 MOL      0.450210
    112 O17         4.6790   -1.3580    0.6220 o         1 MOL     -0.309901
    113 C37         2.9190   -1.9610   -2.2420 c3        1 MOL     -0.325234
    114 C38         1.6630   -2.4340   -2.9260 c         1 MOL      0.790189
    115 N11         0.5460   -1.6960   -2.9640 n         1 MOL     -0.869404
    116 O18         1.6540   -3.5130   -3.4400 o         1 MOL     -0.640845
    117 H50         1.4820   -1.6380   -0.3360 hn        1 MOL      0.141247
    118 H51         3.3410   -3.6550   -0.9600 h1        1 MOL      0.034789
    119 H52         3.7340   -2.2130   -2.9210 hc        1 MOL      0.059764
    120 H53         2.9630   -0.8620   -2.2040 hc        1 MOL      0.059764
    121 H54         0.4340   -0.9150   -2.3270 hn        1 MOL      0.404611
    122 H55        -0.2580   -2.0930   -3.4150 hn        1 MOL      0.404611
    123 N12         5.8240   -2.4550   -0.9350 n         1 MOL     -0.696072
    124 C39         7.0740   -1.9000   -0.4460 c3        1 MOL      0.418458
    125 C40         7.0390   -0.3550   -0.5150 c         1 MOL      0.418956
    126 O19         7.6370    0.1660    0.4480 o         1 MOL     -0.496405
    127 C41         8.2800   -2.5160   -1.0900 c3        1 MOL     -0.057134
    128 C42         9.6330   -2.0750   -0.5190 ca        1 MOL     -0.084130
    129 C43         9.9440   -2.4680    0.7890 ca        1 MOL     -0.103054
    130 C44        10.4070   -1.2220   -1.2890 ca        1 MOL     -0.103054
    131 C45        11.0790   -1.9070    1.3340 ca        1 MOL     -0.252902
    132 C46        11.5310   -0.6790   -0.7230 ca        1 MOL     -0.252902
    133 C47        11.8860   -1.0130    0.6060 ca        1 MOL      0.363650
    134 O20        13.0530   -0.5740    1.2010 oh        1 MOL     -0.551175
    135 H56         5.7450   -3.2490   -1.5550 hn        1 MOL      0.333744
    136 H57         7.1370   -2.1410    0.6110 h1        1 MOL      0.012768
    137 H58         8.2050   -2.2750   -2.1540 hc        1 MOL      0.009061
    138 H59         8.1330   -3.5890   -0.9860 hc        1 MOL      0.009061
    139 H60         9.3920   -3.2080    1.3530 ha        1 MOL      0.132948
    140 H61        10.1820   -1.1300   -2.3500 ha        1 MOL      0.132948
    141 H62        11.3550   -2.0990    2.3600 ha        1 MOL      0.132270
    142 H63        12.2380   -0.0230   -1.2130 ha        1 MOL      0.132270
    143 H64        13.5600    0.0970    0.7440 ho        1 MOL      0.386114
    144 N13         6.3580    0.3400   -1.4300 n         1 MOL     -0.366131
    145 C48         6.4030    1.8490   -1.4050 c3        1 MOL      0.011169
    146 C49         5.4510    2.4110   -0.3390 c         1 MOL      0.331565
    147 O21         5.6760    3.5180    0.1070 o         1 MOL     -0.489059
    148 C50         6.2130    2.5930   -2.7280 c3        1 MOL      0.049826
    149 C51         4.7980    2.5800   -3.3290 c3        1 MOL     -0.121810
    150 C52         4.6680    3.0420   -4.7930 c         1 MOL      0.681036
    151 O22         3.5050    2.9000   -5.2790 o         1 MOL     -0.730542
    152 O23         5.5670    3.6030   -5.4890 o         1 MOL     -0.730542
    153 H65         6.0000   -0.2090   -2.2090 hn        1 MOL      0.274819
    154 H66         7.4420    2.0780   -1.1790 h1        1 MOL      0.060361
    155 H67         6.8850    2.2120   -3.4950 hc        1 MOL     -0.007603
    156 H68         6.4560    3.6490   -2.5960 hc        1 MOL     -0.007603
    157 H69         4.1320    3.1150   -2.6560 hc        1 MOL      0.014640
    158 H70         4.5570    1.5120   -3.2770 hc        1 MOL      0.014640
    159 N14         4.3920    1.7050    0.0990 n         1 MOL     -0.125652
    160 C53         3.5580    2.0150    1.2200 c3        1 MOL      0.001713
    161 C54         4.3080    1.8720    2.5760 c         1 MOL      0.418257
    162 O24         4.2790    2.7170    3.4230 o         1 MOL     -0.523955
    163 C55         2.2480    1.2200    1.0450 c3        1 MOL      0.329835
    164 C56         1.4730    1.6800   -0.1780 c3        1 MOL      0.108901
    165 C57         0.1780    0.8970   -0.3540 c         1 MOL      0.688106
    166 O25        -0.9080    1.4850   -0.2290 o         1 MOL     -0.712794
    167 O26         0.1810   -0.3570   -0.6830 o         1 MOL     -0.712794
    168 H71         4.3890    0.7260   -0.1500 hn        1 MOL      0.096458
    169 H72         3.2430    3.0560    1.2330 h1        1 MOL      0.055585
    170 H73         1.6170    1.5010    1.8910 hc        1 MOL     -0.076373
    171 H74         2.4150    0.1400    0.9960 hc        1 MOL     -0.076373
    172 H75         2.0020    1.5440   -1.1270 hc        1 MOL     -0.062610
    173 H76         1.2740    2.7370   -0.0360 hc        1 MOL     -0.062610
    174 N15         5.0360    0.7220    2.6270 n         1 MOL     -0.004437
    175 C58         5.9290    0.3200    3.7880 c3        1 MOL     -0.383638
    176 H77         6.6030    1.1410    4.0290 h1        1 MOL      0.126593
    177 H78         5.3130    0.0910    4.6580 h1        1 MOL      0.126593
    178 H79         6.5120   -0.5590    3.5120 h1        1 MOL      0.126593
    179 H80         4.9660    0.1080    1.8290 hn        1 MOL     -0.023885
    180 Ca1        -2.6070   -0.4570   -0.9980 Ca        1 MOL      1.769697
    181 O27        -1.1060    0.4100   -3.2690 oh        1 MOL     -0.854948
    182 H81        -1.7450    0.7480   -3.8940 ho        1 MOL      0.405405
    183 H82        -0.2880    0.8290   -3.5190 ho        1 MOL      0.405405
@<TRIPOS>BOND
     1    1    2 1   
     2    1    4 1   
     3    1    5 1   
     4    1    6 1   
     5    2    3 2   
     6    2    7 1   
     7    7    8 1   
     8    7   15 1   
     9    8    9 1   
    10    8   11 1   
    11    8   16 1   
    12    9   10 2   
    13    9   19 1   
    14   11   12 1   
    15   11   17 1   
    16   11   18 1   
    17   12   13 1   
    18   12   14 1   
    19   19   20 1   
    20   19   27 1   
    21   20   21 1   
    22   20   23 1   
    23   20   28 1   
    24   21   22 2   
    25   21   38 1   
    26   23   24 1   
    27   23   25 1   
    28   23   29 1   
    29   24   26 1   
    30   24   30 1   
    31   24   31 1   
    32   25   32 1   
    33   25   33 1   
    34   25   34 1   
    35   26   35 1   
    36   26   36 1   
    37   26   37 1   
    38   38   39 1   
    39   38   46 1   
    40   39   40 1   
    41   39   42 1   
    42   39   47 1   
    43   40   41 2   
    44   40   50 1   
    45   42   43 1   
    46   42   48 1   
    47   42   49 1   
    48   43   44 1   
    49   43   45 1   
    50   50   51 1   
    51   50   54 1   
    52   51   52 1   
    53   51   55 1   
    54   51   56 1   
    55   52   53 2   
    56   52   57 1   
    57   57   58 1   
    58   57   65 1   
    59   58   59 1   
    60   58   61 1   
    61   58   66 1   
    62   59   60 2   
    63   59   69 1   
    64   61   62 1   
    65   61   67 1   
    66   61   68 1   
    67   62   63 1   
    68   62   64 1   
    69   69   70 1   
    70   69   73 1   
    71   70   71 1   
    72   70   74 1   
    73   70   75 1   
    74   71   72 2   
    75   71   76 1   
    76   76   77 1   
    77   76   85 1   
    78   77   78 1   
    79   77   80 1   
    80   77   86 1   
    81   78   79 2   
    82   78   93 1   
    83   80   81 1   
    84   80   87 1   
    85   80   88 1   
    86   81   82 1   
    87   81   89 1   
    88   81   90 1   
    89   82   83 1   
    90   82   84 2   
    91   83   91 1   
    92   83   92 1   
    93   93   94 1   
    94   93  100 1   
    95   94   95 1   
    96   94   97 1   
    97   94  101 1   
    98   95   96 2   
    99   95  109 1   
   100   97   98 1   
   101   97   99 1   
   102   97  102 1   
   103   98  103 1   
   104   98  104 1   
   105   98  105 1   
   106   99  106 1   
   107   99  107 1   
   108   99  108 1   
   109  109  110 1   
   110  109  117 1   
   111  110  111 1   
   112  110  113 1   
   113  110  118 1   
   114  111  112 2   
   115  111  123 1   
   116  113  114 1   
   117  113  119 1   
   118  113  120 1   
   119  114  115 1   
   120  114  116 2   
   121  115  121 1   
   122  115  122 1   
   123  123  124 1   
   124  123  135 1   
   125  124  125 1   
   126  124  127 1   
   127  124  136 1   
   128  125  126 2   
   129  125  144 1   
   130  127  128 1   
   131  127  137 1   
   132  127  138 1   
   133  128  129 ar  
   134  128  130 ar  
   135  129  131 ar  
   136  129  139 1   
   137  130  132 ar  
   138  130  140 1   
   139  131  133 ar  
   140  131  141 1   
   141  132  133 ar  
   142  132  142 1   
   143  133  134 1   
   144  134  143 1   
   145  144  145 1   
   146  144  153 1   
   147  145  146 1   
   148  145  148 1   
   149  145  154 1   
   150  146  147 2   
   151  146  159 1   
   152  148  149 1   
   153  148  155 1   
   154  148  156 1   
   155  149  150 1   
   156  149  157 1   
   157  149  158 1   
   158  150  151 1   
   159  150  152 1   
   160  159  160 1   
   161  159  168 1   
   162  160  161 1   
   163  160  163 1   
   164  160  169 1   
   165  161  162 2   
   166  161  174 1   
   167  163  164 1   
   168  163  170 1   
   169  163  171 1   
   170  164  165 1   
   171  164  172 1   
   172  164  173 1   
   173  165  166 1   
   174  165  167 1   
   175  174  175 1   
   176  174  179 1   
   177  175  176 1   
   178  175  177 1   
   179  175  178 1   
   180  181  182 1   
   181  181  183 1   
@<TRIPOS>SUBSTRUCTURE
     1 MOL         1 TEMP              0 ****  ****    0 ROOT
