@<TRIPOS>MOLECULE
MOL
  179   176     1     0     0
SMALL
resp


@<TRIPOS>ATOM
      1 C1          1.4750    2.6450    6.2680 c3        1 MOL     -0.324717
      2 C2          1.1300    2.3430    4.8540 c         1 MOL      0.787277
      3 O1          2.0030    2.4310    4.0190 o         1 MOL     -0.618334
      4 H1          1.7780    1.7280    6.7710 hc        1 MOL      0.074514
      5 H2          2.2940    3.3620    6.2970 hc        1 MOL      0.074514
      6 H3          0.6050    3.0660    6.7730 hc        1 MOL      0.074514
      7 N1         -0.1360    2.1270    4.5470 n         1 MOL     -0.556882
      8 C3         -0.7590    1.9670    3.1960 c3        1 MOL     -0.113073
      9 C4         -0.9310    3.3300    2.4990 c         1 MOL      0.616267
     10 O2         -1.3770    4.3050    3.1370 o         1 MOL     -0.548602
     11 C5         -2.0940    1.0730    3.2680 c3        1 MOL     -0.118642
     12 C6         -2.7100    0.8510    1.8900 c         1 MOL      0.656854
     13 O3         -3.8700    0.3880    1.8420 o         1 MOL     -0.739973
     14 O4         -2.0480    1.1260    0.8530 o         1 MOL     -0.739973
     15 H4         -0.7330    1.9840    5.3610 hn        1 MOL      0.302611
     16 H5          0.0710    1.4730    2.6830 h1        1 MOL      0.064499
     17 H6         -2.8100    1.6130    3.8930 hc        1 MOL      0.072228
     18 H7         -1.9940    0.1480    3.8240 hc        1 MOL      0.072228
     19 N2         -0.3640    3.4280    1.2920 n         1 MOL     -0.113033
     20 C7         -0.1550    4.7900    0.7030 c3        1 MOL     -0.120927
     21 C8         -1.5050    5.3850    0.1810 c         1 MOL      0.354033
     22 O5         -1.9810    6.3900    0.7560 o         1 MOL     -0.494088
     23 C9          0.9330    4.7800   -0.3900 c3        1 MOL     -0.113353
     24 C10         1.4130    6.1510   -0.7480 c3        1 MOL      0.003408
     25 C11         2.5340    6.1240   -1.7710 c3        1 MOL     -0.071243
     26 C12         2.9650    7.5260   -2.3100 c3        1 MOL      0.035033
     27 N3          3.8450    8.2500   -1.4190 n4        1 MOL     -0.379135
     28 H8          0.0570    2.5930    0.9180 hn        1 MOL      0.124161
     29 H9          0.2850    5.4350    1.4720 h1        1 MOL      0.087625
     30 H10         0.4520    4.4260   -1.2960 hc        1 MOL      0.084727
     31 H11         1.7950    4.1360   -0.2090 hc        1 MOL      0.084727
     32 H12         1.8350    6.6270    0.1380 hc        1 MOL      0.035882
     33 H13         0.5980    6.8180   -0.9990 hc        1 MOL      0.035882
     34 H14         2.1740    5.4460   -2.5470 hc        1 MOL      0.048304
     35 H15         3.4400    5.7640   -1.2710 hc        1 MOL      0.048304
     36 H16         2.1290    8.0920   -2.7170 hx        1 MOL      0.071154
     37 H17         3.4290    7.2660   -3.2690 hx        1 MOL      0.071154
     38 H18         3.4450    8.7060   -0.6090 hn        1 MOL      0.346419
     39 H19         4.6610    7.6530   -1.3490 hn        1 MOL      0.346419
     40 H20         4.2480    8.9930   -1.9680 hn        1 MOL      0.346419
     41 N4         -2.1730    4.7230   -0.7990 n         1 MOL     -0.197535
     42 C13        -3.3740    5.2040   -1.4970 c3        1 MOL     -0.187464
     43 C14        -4.6470    4.7180   -0.8060 c         1 MOL      0.531500
     44 O6         -5.7170    5.2450   -1.0980 o         1 MOL     -0.546015
     45 C15        -3.4580    4.7510   -2.9790 c3        1 MOL     -0.013308
     46 C16        -3.4980    3.2060   -3.0670 c         1 MOL      0.573235
     47 O7         -4.1270    2.7660   -4.0630 o         1 MOL     -0.648137
     48 O8         -2.8070    2.4770   -2.2560 o         1 MOL     -0.648137
     49 H21        -1.8130    3.8430   -1.1310 hn        1 MOL      0.171923
     50 H22        -3.4240    6.2850   -1.4490 h1        1 MOL      0.114875
     51 H23        -2.5370    5.0340   -3.5040 hc        1 MOL      0.022211
     52 H24        -4.3150    5.2340   -3.4380 hc        1 MOL      0.022211
     53 N5         -4.4710    3.8490    0.1630 n         1 MOL     -0.133063
     54 C17        -5.5350    3.3890    1.0710 c3        1 MOL     -0.331751
     55 C18        -6.3930    2.1320    0.6850 c         1 MOL      0.616508
     56 O9         -7.4570    1.8710    1.2460 o         1 MOL     -0.577255
     57 H25        -3.5710    3.4540    0.3940 hn        1 MOL      0.226031
     58 H26        -6.3150    4.1540    1.0460 h1        1 MOL      0.134479
     59 H27        -5.0950    3.1730    2.0340 h1        1 MOL      0.134479
     60 N6         -5.8840    1.2980   -0.2180 n         1 MOL     -0.291564
     61 C19        -6.6490    0.2060   -0.9600 c3        1 MOL     -0.094948
     62 C20        -6.5710   -1.1270   -0.2450 c         1 MOL      0.361647
     63 O10        -7.1770   -2.1610   -0.6790 o         1 MOL     -0.490014
     64 C21        -6.1300    0.0150   -2.3940 c3        1 MOL     -0.212642
     65 C22        -4.6490   -0.4060   -2.4930 c         1 MOL      0.764966
     66 N7         -4.2780   -0.9080   -3.6260 n         1 MOL     -0.848267
     67 O11        -3.8220   -0.2580   -1.5720 o         1 MOL     -0.716319
     68 H28        -5.0050    1.5420   -0.6620 hn        1 MOL      0.219334
     69 H29        -7.7200    0.3530   -0.8870 h1        1 MOL      0.153788
     70 H30        -6.1930    1.0050   -2.8510 hc        1 MOL      0.102567
     71 H31        -6.8090   -0.7070   -2.8350 hc        1 MOL      0.102567
     72 H32        -4.9440   -1.2050   -4.3320 hn        1 MOL      0.392861
     73 H33        -3.3510   -1.2950   -3.6250 hn        1 MOL      0.392861
     74 N8         -5.9940   -1.2500    0.9650 n         1 MOL     -0.202004
     75 C23        -5.9190   -2.4540    1.7600 c3        1 MOL     -0.305297
     76 C24        -4.6590   -3.3690    1.6000 c         1 MOL      0.631962
     77 O12        -4.6330   -4.4220    2.2290 o         1 MOL     -0.561646
     78 H34        -5.4640   -0.5030    1.3850 hn        1 MOL      0.327096
     79 H35        -6.8150   -3.0280    1.5390 h1        1 MOL      0.136572
     80 H36        -5.9830   -2.1520    2.8060 h1        1 MOL      0.136572
     81 N9         -3.6810   -2.9370    0.8150 n         1 MOL     -0.421293
     82 C25        -2.4960   -3.7200    0.5950 c3        1 MOL      0.155720
     83 C26        -1.2230   -2.8660    0.6270 c         1 MOL      0.427115
     84 O13        -1.2620   -1.7810    0.0890 o         1 MOL     -0.474946
     85 C27        -2.5840   -4.4740   -0.6740 c3        1 MOL      0.002985
     86 C28        -3.7610   -5.4440   -0.6250 ca        1 MOL      0.195393
     87 C29        -5.0300   -5.0510   -1.0600 ca        1 MOL     -0.378406
     88 C30        -3.4840   -6.7740   -0.2830 ca        1 MOL     -0.378406
     89 C31        -6.1130   -5.9490   -0.9880 ca        1 MOL     -0.058385
     90 C32        -4.5230   -7.6930   -0.1660 ca        1 MOL     -0.058385
     91 C33        -5.8050   -7.2580   -0.5280 ca        1 MOL      0.190947
     92 O14        -6.8180   -8.1370   -0.4450 oh        1 MOL     -0.440149
     93 H37        -3.6190   -1.9980    0.4570 hn        1 MOL      0.336609
     94 H38        -2.4410   -4.4680    1.3790 h1        1 MOL      0.026268
     95 H39        -1.7270   -5.1000   -0.9160 hc        1 MOL      0.003186
     96 H40        -2.6690   -3.8580   -1.5750 hc        1 MOL      0.003186
     97 H41        -5.2310   -4.0620   -1.4590 ha        1 MOL      0.168690
     98 H42        -2.4860   -6.9980    0.0430 ha        1 MOL      0.168690
     99 H43        -7.1140   -5.6750   -1.2840 ha        1 MOL      0.110719
    100 H44        -4.2730   -8.7290    0.0280 ha        1 MOL      0.110719
    101 H45        -6.4470   -8.9050    0.0110 ho        1 MOL      0.326311
    102 N10        -0.1130   -3.3750    1.1890 n         1 MOL     -0.538947
    103 C34         1.1470   -2.6570    1.1960 c3        1 MOL      0.129818
    104 C35         2.1570   -3.3560    0.2850 c         1 MOL      0.596100
    105 O15         2.3390   -4.5280    0.5480 o         1 MOL     -0.587104
    106 C36         1.7270   -2.4440    2.5910 c3        1 MOL      0.004399
    107 C37         0.7450   -1.5440    3.4150 c3        1 MOL      0.020628
    108 C38         3.1230   -1.7640    2.6460 c3        1 MOL     -0.098670
    109 C39         1.1420   -1.3010    4.8750 c3        1 MOL     -0.257846
    110 H46        -0.1630   -4.2490    1.6820 hn        1 MOL      0.321274
    111 H47         1.0430   -1.6500    0.7970 h1        1 MOL     -0.045935
    112 H48         1.8340   -3.4100    3.0870 hc        1 MOL      0.027747
    113 H49        -0.2940   -1.8860    3.4790 hc        1 MOL      0.050105
    114 H50         0.7460   -0.5450    2.9990 hc        1 MOL      0.050105
    115 H51         3.1240   -0.6750    2.6750 hc        1 MOL      0.029908
    116 H52         3.4940   -1.9890    3.6510 hc        1 MOL      0.029908
    117 H53         3.8330   -2.2910    2.0170 hc        1 MOL      0.029908
    118 H54         1.3800   -2.2500    5.3460 hc        1 MOL      0.057373
    119 H55         2.0430   -0.6900    4.9540 hc        1 MOL      0.057373
    120 H56         0.3060   -0.8630    5.4240 hc        1 MOL      0.057373
    121 N11         2.7840   -2.7790   -0.7170 n         1 MOL     -0.346873
    122 C40         3.8740   -3.4710   -1.4940 c3        1 MOL      0.041709
    123 C41         5.2160   -3.4290   -0.8580 c         1 MOL      0.349375
    124 O16         5.4020   -2.7330    0.1520 o         1 MOL     -0.323382
    125 C42         3.8890   -2.7770   -2.8750 c3        1 MOL     -0.159435
    126 O17         4.4090   -1.4920   -2.5220 oh        1 MOL     -0.422043
    127 H57         2.4710   -1.8780   -1.0670 hn        1 MOL      0.223077
    128 H58         3.5910   -4.5100   -1.6810 h1        1 MOL      0.076334
    129 H59         2.9410   -2.6750   -3.3950 h1        1 MOL      0.105912
    130 H60         4.5740   -3.3080   -3.5300 h1        1 MOL      0.105912
    131 H61         4.4680   -0.9470   -3.3120 ho        1 MOL      0.382058
    132 N12         6.2380   -4.0340   -1.4750 n         1 MOL     -0.354569
    133 C43         7.6020   -3.9720   -0.9330 c3        1 MOL      0.125444
    134 C44         8.0710   -2.4950   -0.9080 c         1 MOL      0.468030
    135 O18         8.6230   -2.0260    0.0580 o         1 MOL     -0.522561
    136 C45         8.4310   -4.9110   -1.7700 c3        1 MOL     -0.416129
    137 H62         5.9710   -4.5940   -2.2600 hn        1 MOL      0.272511
    138 H63         7.5190   -4.3560    0.0870 h1        1 MOL      0.099734
    139 H64         9.4930   -4.7550   -1.5730 hc        1 MOL      0.124274
    140 H65         8.2130   -5.9220   -1.3990 hc        1 MOL      0.124274
    141 H66         8.2440   -4.8700   -2.8410 hc        1 MOL      0.124274
    142 N13         7.8610   -1.6710   -1.9160 n         1 MOL     -0.355033
    143 C46         8.2320   -0.2370   -1.9890 c3        1 MOL      0.072548
    144 C47         7.4420    0.6240   -1.0000 c         1 MOL      0.394547
    145 O19         7.9130    1.5560   -0.4300 o         1 MOL     -0.518212
    146 C48         8.0230    0.2880   -3.4180 c3        1 MOL     -0.199894
    147 H67         7.2750   -2.0250   -2.6570 hn        1 MOL      0.213302
    148 H68         9.2960   -0.2030   -1.7730 h1        1 MOL      0.113139
    149 H69         8.4280    1.3000   -3.4690 hc        1 MOL      0.055691
    150 H70         8.4380   -0.3290   -4.2220 hc        1 MOL      0.055691
    151 H71         6.9450    0.3730   -3.5720 hc        1 MOL      0.055691
    152 N14         6.1820    0.3250   -0.7110 n         1 MOL     -0.048579
    153 C49         5.4710    0.9680    0.3900 c3        1 MOL     -0.227903
    154 C50         6.0320    0.5820    1.7550 c         1 MOL      0.595023
    155 O20         6.1200    1.4820    2.5850 o         1 MOL     -0.582051
    156 C51         3.9860    0.4890    0.3070 c3        1 MOL     -0.073766
    157 C52         3.1280    1.1720   -0.8400 c3        1 MOL     -0.012849
    158 C53         1.7070    0.6740   -0.6990 c         1 MOL      0.854095
    159 O21         1.3180   -0.2510   -1.4520 o         1 MOL     -0.765427
    160 O22         0.8510    1.3250   -0.0880 o         1 MOL     -0.765427
    161 H72         5.6720   -0.3630   -1.2470 hn        1 MOL      0.043026
    162 H73         5.5690    2.0550    0.3830 h1        1 MOL      0.115714
    163 H74         3.5300    0.8510    1.2230 hc        1 MOL      0.111000
    164 H75         3.8610   -0.5900    0.4490 hc        1 MOL      0.111000
    165 H76         3.5050    0.8900   -1.8250 hc        1 MOL     -0.046493
    166 H77         3.1310    2.2550   -0.7090 hc        1 MOL     -0.046493
    167 N15         6.3460   -0.6750    2.0470 n         1 MOL     -0.067995
    168 C54         7.0660   -1.1130    3.2400 c3        1 MOL     -0.289323
    169 H78         6.7180   -2.1040    3.5310 h1        1 MOL      0.108482
    170 H79         8.1340   -1.1510    3.0260 h1        1 MOL      0.108482
    171 H80         6.8830   -0.4110    4.0540 h1        1 MOL      0.108482
    172 H81         5.9770   -1.3760    1.4330 hn        1 MOL      0.068020
    173 Ca1        -1.1980    0.5240   -1.5050 Ca        1 MOL      1.808584
    174 O23        -1.4280   -1.7090   -2.8460 oh        1 MOL     -1.001856
    175 H82        -0.7250   -2.3150   -2.6060 ho        1 MOL      0.462642
    176 H83        -1.7050   -2.0020   -3.7130 ho        1 MOL      0.462642
    177 O24         0.2690    2.2420   -3.1600 oh        1 MOL     -1.001856
    178 H84         0.6880    1.7440   -3.8550 ho        1 MOL      0.462642
    179 H85         0.1530    3.1190   -3.5220 ho        1 MOL      0.462642
@<TRIPOS>BOND
     1    1    2 1   
     2    1    4 1   
     3    1    5 1   
     4    1    6 1   
     5    2    3 2   
     6    2    7 1   
     7    7    8 1   
     8    7   15 1   
     9    8    9 1   
    10    8   11 1   
    11    8   16 1   
    12    9   10 2   
    13    9   19 1   
    14   11   12 1   
    15   11   17 1   
    16   11   18 1   
    17   12   13 1   
    18   12   14 1   
    19   19   20 1   
    20   19   28 1   
    21   20   21 1   
    22   20   23 1   
    23   20   29 1   
    24   21   22 2   
    25   21   41 1   
    26   23   24 1   
    27   23   30 1   
    28   23   31 1   
    29   24   25 1   
    30   24   32 1   
    31   24   33 1   
    32   25   26 1   
    33   25   34 1   
    34   25   35 1   
    35   26   27 1   
    36   26   36 1   
    37   26   37 1   
    38   27   38 1   
    39   27   39 1   
    40   27   40 1   
    41   41   42 1   
    42   41   49 1   
    43   42   43 1   
    44   42   45 1   
    45   42   50 1   
    46   43   44 2   
    47   43   53 1   
    48   45   46 1   
    49   45   51 1   
    50   45   52 1   
    51   46   47 1   
    52   46   48 1   
    53   53   54 1   
    54   53   57 1   
    55   54   55 1   
    56   54   58 1   
    57   54   59 1   
    58   55   56 2   
    59   55   60 1   
    60   60   61 1   
    61   60   68 1   
    62   61   62 1   
    63   61   64 1   
    64   61   69 1   
    65   62   63 2   
    66   62   74 1   
    67   64   65 1   
    68   64   70 1   
    69   64   71 1   
    70   65   66 1   
    71   65   67 2   
    72   66   72 1   
    73   66   73 1   
    74   74   75 1   
    75   74   78 1   
    76   75   76 1   
    77   75   79 1   
    78   75   80 1   
    79   76   77 2   
    80   76   81 1   
    81   81   82 1   
    82   81   93 1   
    83   82   83 1   
    84   82   85 1   
    85   82   94 1   
    86   83   84 2   
    87   83  102 1   
    88   85   86 1   
    89   85   95 1   
    90   85   96 1   
    91   86   87 ar  
    92   86   88 ar  
    93   87   89 ar  
    94   87   97 1   
    95   88   90 ar  
    96   88   98 1   
    97   89   91 ar  
    98   89   99 1   
    99   90   91 ar  
   100   90  100 1   
   101   91   92 1   
   102   92  101 1   
   103  102  103 1   
   104  102  110 1   
   105  103  104 1   
   106  103  106 1   
   107  103  111 1   
   108  104  105 2   
   109  104  121 1   
   110  106  107 1   
   111  106  108 1   
   112  106  112 1   
   113  107  109 1   
   114  107  113 1   
   115  107  114 1   
   116  108  115 1   
   117  108  116 1   
   118  108  117 1   
   119  109  118 1   
   120  109  119 1   
   121  109  120 1   
   122  121  122 1   
   123  121  127 1   
   124  122  123 1   
   125  122  125 1   
   126  122  128 1   
   127  123  124 2   
   128  123  132 1   
   129  125  126 1   
   130  125  129 1   
   131  125  130 1   
   132  126  131 1   
   133  132  133 1   
   134  132  137 1   
   135  133  134 1   
   136  133  136 1   
   137  133  138 1   
   138  134  135 2   
   139  134  142 1   
   140  136  139 1   
   141  136  140 1   
   142  136  141 1   
   143  142  143 1   
   144  142  147 1   
   145  143  144 1   
   146  143  146 1   
   147  143  148 1   
   148  144  145 2   
   149  144  152 1   
   150  146  149 1   
   151  146  150 1   
   152  146  151 1   
   153  152  153 1   
   154  152  161 1   
   155  153  154 1   
   156  153  156 1   
   157  153  162 1   
   158  154  155 2   
   159  154  167 1   
   160  156  157 1   
   161  156  163 1   
   162  156  164 1   
   163  157  158 1   
   164  157  165 1   
   165  157  166 1   
   166  158  159 1   
   167  158  160 1   
   168  167  168 1   
   169  167  172 1   
   170  168  169 1   
   171  168  170 1   
   172  168  171 1   
   173  174  175 1   
   174  174  176 1   
   175  177  178 1   
   176  177  179 1   
@<TRIPOS>SUBSTRUCTURE
     1 MOL         1 TEMP              0 ****  ****    0 ROOT
