@<TRIPOS>MOLECULE
MOL
  189   185     1     0     0
SMALL
resp


@<TRIPOS>ATOM
      1 C1          0.6850   -2.8390    6.4610 c3        1 MOL     -0.504017
      2 C2          0.8350   -2.5840    4.9880 c         1 MOL      0.823727
      3 O1          0.9450   -1.4160    4.5670 o         1 MOL     -0.655955
      4 H1         -0.2730   -2.4440    6.8010 hc        1 MOL      0.127056
      5 H2          0.7230   -3.9110    6.6500 hc        1 MOL      0.127056
      6 H3          1.4930   -2.3450    7.0010 hc        1 MOL      0.127056
      7 N1          0.8590   -3.6420    4.2030 n         1 MOL     -0.596358
      8 C3          1.4160   -3.6170    2.8380 c3        1 MOL      0.126903
      9 C4          0.9240   -4.7940    1.9460 c         1 MOL      0.421835
     10 O2          0.8030   -5.9400    2.4120 o         1 MOL     -0.579270
     11 C5          2.9170   -3.6860    2.9830 c3        1 MOL     -0.220152
     12 C6          3.6440   -3.4480    1.6750 c         1 MOL      0.541755
     13 O3          3.2580   -2.5700    0.8780 o         1 MOL     -0.624673
     14 O4          4.6430   -4.1560    1.4290 o         1 MOL     -0.624673
     15 H4          0.8030   -4.5750    4.5780 hn        1 MOL      0.311485
     16 H5          1.2580   -2.6380    2.3790 h1        1 MOL      0.133078
     17 H6          3.1430   -4.6610    3.4040 hc        1 MOL      0.050333
     18 H7          3.1550   -3.0200    3.8060 hc        1 MOL      0.050333
     19 N2          0.9270   -4.5610    0.6330 n         1 MOL      0.048305
     20 C7          0.7010   -5.5240   -0.4250 c3        1 MOL     -0.381417
     21 C8          1.5590   -5.3690   -1.6640 c         1 MOL      0.528705
     22 O5          1.6520   -6.2410   -2.5090 o         1 MOL     -0.584418
     23 C9         -0.7850   -5.4650   -0.9560 c3        1 MOL      0.184757
     24 C10        -1.0650   -4.1460   -1.6940 c3        1 MOL      0.235601
     25 C11        -1.7880   -5.8560    0.0970 c3        1 MOL     -0.010893
     26 C12        -1.9700   -4.5410   -2.7910 c3        1 MOL     -0.281501
     27 H8          1.1680   -3.6310    0.3260 hn        1 MOL      0.228355
     28 H9          1.0160   -6.4820   -0.0120 h1        1 MOL      0.144437
     29 H10        -0.9290   -6.3120   -1.6310 hc        1 MOL     -0.016146
     30 H11        -0.1550   -3.6420   -2.0310 hc        1 MOL     -0.011652
     31 H12        -1.6350   -3.4730   -1.0570 hc        1 MOL     -0.011652
     32 H13        -1.3860   -6.7190    0.6270 hc        1 MOL     -0.013300
     33 H14        -1.8830   -5.0990    0.8770 hc        1 MOL     -0.013300
     34 H15        -2.8110   -6.1310   -0.1710 hc        1 MOL     -0.013300
     35 H16        -1.3290   -5.1200   -3.4540 hc        1 MOL      0.040341
     36 H17        -2.7700   -5.2020   -2.4590 hc        1 MOL      0.040341
     37 H18        -2.2830   -3.6440   -3.3250 hc        1 MOL      0.040341
     38 N3          2.3940   -4.3130   -1.7390 n         1 MOL     -0.111031
     39 C13         3.2550   -4.0240   -2.9260 c3        1 MOL     -0.126710
     40 C14         4.6370   -3.4590   -2.7310 c         1 MOL      0.352228
     41 O6          5.4900   -3.3800   -3.6310 o         1 MOL     -0.539329
     42 C15         2.4430   -3.0560   -3.7430 c3        1 MOL     -0.155547
     43 C16         1.9170   -1.8490   -3.0240 c         1 MOL      0.737086
     44 O7          2.4340   -1.4860   -1.9810 o         1 MOL     -0.711673
     45 O8          0.9860   -1.2480   -3.6080 o         1 MOL     -0.711673
     46 H19         2.3730   -3.6670   -0.9610 hn        1 MOL     -0.006463
     47 H20         3.3190   -4.8980   -3.5720 h1        1 MOL      0.135153
     48 H21         1.6120   -3.5890   -4.1970 hc        1 MOL      0.049614
     49 H22         2.9770   -2.6120   -4.5800 hc        1 MOL      0.049614
     50 N4          4.9990   -3.1620   -1.5040 n         1 MOL      0.031804
     51 C17         6.4280   -2.8790   -1.2630 c3        1 MOL     -0.329582
     52 C18         7.0190   -1.5810   -1.8200 c         1 MOL      0.460646
     53 O9          8.2450   -1.4850   -2.0620 o         1 MOL     -0.590324
     54 H23         4.3330   -3.3060   -0.7520 hn        1 MOL      0.107032
     55 H24         7.0080   -3.6140   -1.8140 h1        1 MOL      0.125412
     56 H25         6.6470   -2.9090   -0.1910 h1        1 MOL      0.125412
     57 N5          6.1220   -0.6660   -2.1350 n         1 MOL     -0.054627
     58 C19         6.4110    0.5370   -2.9060 c3        1 MOL     -0.172292
     59 C20         7.1180    1.6260   -2.0480 c         1 MOL      0.488396
     60 O10         7.7650    2.5310   -2.5510 o         1 MOL     -0.562647
     61 C21         5.1830    1.1710   -3.5510 c3        1 MOL     -0.107923
     62 C22         4.0680    1.4910   -2.5600 c         1 MOL      0.619636
     63 O11         4.0300    0.9900   -1.4110 o         1 MOL     -0.676976
     64 O12         3.3200    2.3940   -2.9470 o         1 MOL     -0.676976
     65 H26         5.1850   -0.9480   -1.9140 hn        1 MOL      0.199328
     66 H27         7.0590    0.2950   -3.7490 h1        1 MOL      0.104354
     67 H28         4.8620    0.5680   -4.3990 hc        1 MOL      0.061427
     68 H29         5.5160    2.0710   -4.0650 hc        1 MOL      0.061427
     69 N6          6.8770    1.5400   -0.7660 n         1 MOL     -0.247225
     70 C23         7.3250    2.4770    0.2230 c3        1 MOL     -0.180694
     71 C24         6.4120    3.3040    1.0660 c         1 MOL      0.493227
     72 O13         6.8250    3.9410    2.0590 o         1 MOL     -0.577372
     73 H30         6.2180    0.8710   -0.3920 hn        1 MOL      0.193571
     74 H31         8.0810    3.1030   -0.2370 h1        1 MOL      0.101767
     75 H32         7.8730    1.8940    0.9660 h1        1 MOL      0.101767
     76 N7          5.1030    3.3580    0.6520 n         1 MOL     -0.258234
     77 C25         4.0260    4.2040    1.2170 c3        1 MOL     -0.205824
     78 C26         2.8180    3.3040    1.5190 c         1 MOL      0.633910
     79 O14         2.6440    2.2400    0.8930 o         1 MOL     -0.587172
     80 C27         3.6360    5.3430    0.2800 c3        1 MOL      0.083537
     81 C28         4.7370    6.4460   -0.1090 c3        1 MOL     -0.493681
     82 C29         4.1860    7.6430   -0.8770 c         1 MOL      0.753442
     83 N8          3.9850    7.5160   -2.1870 n         1 MOL     -0.843513
     84 O15         3.8830    8.7030   -0.2850 o         1 MOL     -0.589409
     85 H33         4.9380    2.6980   -0.0880 hn        1 MOL      0.293379
     86 H34         4.2640    4.7730    2.1140 h1        1 MOL      0.109752
     87 H35         2.7330    5.8900    0.5550 hc        1 MOL      0.048323
     88 H36         3.3140    4.8160   -0.6160 hc        1 MOL      0.048323
     89 H37         5.4050    5.8980   -0.7750 hc        1 MOL      0.159650
     90 H38         5.3140    6.6960    0.7880 hc        1 MOL      0.159650
     91 H39         4.2650    6.6520   -2.6210 hn        1 MOL      0.379417
     92 H40         3.2830    8.0400   -2.6970 hn        1 MOL      0.379417
     93 N9          1.9640    3.5710    2.4960 n         1 MOL     -0.431661
     94 C30         0.6970    2.8510    2.6740 c3        1 MOL      0.037422
     95 C31        -0.4280    3.5520    1.8490 c         1 MOL      0.462001
     96 O16        -0.5070    4.7560    1.7290 o         1 MOL     -0.582712
     97 C32         0.2710    2.8270    4.1890 c3        1 MOL      0.271933
     98 C33        -0.7600    1.7480    4.4060 c3        1 MOL     -0.151127
     99 C34         1.3320    2.5270    5.2300 c3        1 MOL     -0.151127
    100 H41         2.0170    4.4830    2.9260 hn        1 MOL      0.250148
    101 H42         0.8710    1.8540    2.2830 h1        1 MOL     -0.012324
    102 H43        -0.2770    3.7140    4.5030 hc        1 MOL     -0.038058
    103 H44        -0.4610    0.8220    3.9160 hc        1 MOL      0.022163
    104 H45        -0.9230    1.7500    5.4820 hc        1 MOL      0.022163
    105 H46        -1.6660    2.1340    3.9330 hc        1 MOL      0.022163
    106 H47         1.0480    2.7080    6.2640 hc        1 MOL      0.022163
    107 H48         1.7850    1.5370    5.1480 hc        1 MOL      0.022163
    108 H49         2.1730    3.1930    5.0160 hc        1 MOL      0.022163
    109 N10        -1.2490    2.7190    1.1880 n         1 MOL     -0.026849
    110 C35        -2.2860    3.0240    0.2130 c3        1 MOL      0.087632
    111 C36        -3.7450    2.7730    0.7660 c         1 MOL      0.258983
    112 O17        -3.8760    1.9210    1.6450 o         1 MOL     -0.460084
    113 C37        -2.1280    2.2030   -1.0780 c3        1 MOL     -0.360727
    114 C38        -3.1780    2.4960   -2.1480 c         1 MOL      0.700676
    115 N11        -3.3400    3.6770   -2.6970 n         1 MOL     -0.766356
    116 O18        -3.9680    1.5630   -2.4990 o         1 MOL     -0.551217
    117 H50        -1.1260    1.7280    1.3510 hn        1 MOL      0.039566
    118 H51        -2.1790    4.0730   -0.0800 h1        1 MOL      0.024799
    119 H52        -2.0760    1.1350   -0.8850 hc        1 MOL      0.153075
    120 H53        -1.1580    2.3770   -1.5460 hc        1 MOL      0.153075
    121 H54        -2.8180    4.4590   -2.3300 hn        1 MOL      0.354054
    122 H55        -3.9940    3.7620   -3.4640 hn        1 MOL      0.354054
    123 N12        -4.8730    3.3260    0.3010 n         1 MOL     -0.237627
    124 C39        -6.2570    2.9120    0.6950 c3        1 MOL      0.106130
    125 C40        -6.5000    1.3840    0.5580 c         1 MOL      0.399886
    126 O19        -7.1740    0.7340    1.4470 o         1 MOL     -0.580742
    127 C41        -7.3380    3.6090    0.0220 c3        1 MOL     -0.226213
    128 C42        -7.7600    3.1620   -1.3900 ca        1 MOL     -0.000358
    129 C43        -8.6010    2.0890   -1.5250 ca        1 MOL     -0.086136
    130 C44        -7.1380    3.8040   -2.4830 ca        1 MOL     -0.086136
    131 C45        -8.9560    1.7130   -2.8180 ca        1 MOL     -0.450273
    132 C46        -7.4430    3.3690   -3.8010 ca        1 MOL     -0.450273
    133 C47        -8.3990    2.2750   -3.9950 ca        1 MOL      0.548546
    134 O20        -8.8170    1.9320   -5.2160 oh        1 MOL     -0.551607
    135 H56        -4.7990    4.0140   -0.4450 hn        1 MOL      0.158995
    136 H57        -6.3350    3.1170    1.7650 h1        1 MOL      0.060394
    137 H58        -7.0320    4.6570    0.0180 hc        1 MOL      0.064801
    138 H59        -8.2080    3.4380    0.6600 hc        1 MOL      0.064801
    139 H60        -8.9450    1.5570   -0.6460 ha        1 MOL      0.137900
    140 H61        -6.4390    4.6210   -2.3720 ha        1 MOL      0.137900
    141 H62        -9.6750    0.9280   -2.9610 ha        1 MOL      0.192441
    142 H63        -7.0080    3.8460   -4.6680 ha        1 MOL      0.192441
    143 H64        -9.5600    1.3260   -5.1100 ho        1 MOL      0.399331
    144 N13        -5.9180    0.7290   -0.4180 n         1 MOL      0.161240
    145 C48        -5.9930   -0.7640   -0.5770 c3        1 MOL     -0.330301
    146 C49        -5.4800   -1.4910    0.7170 c         1 MOL      0.532137
    147 O21        -6.1380   -2.4610    1.1180 o         1 MOL     -0.520945
    148 C50        -5.1890   -1.2130   -1.8080 c3        1 MOL      0.408649
    149 C51        -5.1700   -2.7070   -2.1620 c3        1 MOL     -0.273835
    150 C52        -6.6000   -3.2220   -2.5540 c         1 MOL      0.665288
    151 O22        -6.7490   -4.4990   -2.7480 o         1 MOL     -0.732031
    152 O23        -7.5670   -2.4280   -2.6230 o         1 MOL     -0.732031
    153 H65        -5.3070    1.2020   -1.0750 hn        1 MOL      0.097731
    154 H66        -7.0270   -1.0870   -0.6880 h1        1 MOL      0.160922
    155 H67        -4.1610   -1.0000   -1.5120 hc        1 MOL     -0.072020
    156 H68        -5.5010   -0.6580   -2.6920 hc        1 MOL     -0.072020
    157 H69        -4.7590   -3.3220   -1.3660 hc        1 MOL      0.058883
    158 H70        -4.5960   -2.7560   -3.0930 hc        1 MOL      0.058883
    159 N14        -4.4000   -1.0020    1.3570 n         1 MOL     -0.416896
    160 C53        -3.7870   -1.6050    2.5300 c3        1 MOL     -0.194773
    161 C54        -4.2770   -0.9280    3.8060 c         1 MOL      0.404795
    162 O24        -3.8100   -1.2940    4.8850 o         1 MOL     -0.546655
    163 C55        -2.2720   -1.4180    2.4430 c3        1 MOL      0.198551
    164 C56        -1.6440   -1.9970    1.1930 c3        1 MOL      0.144627
    165 C57        -0.3730   -1.2970    0.7500 c         1 MOL      0.601090
    166 O25        -0.1150   -0.1470    1.1330 o         1 MOL     -0.687955
    167 O26         0.4830   -1.9400    0.0900 o         1 MOL     -0.687955
    168 H71        -3.8500   -0.2550    0.9580 hn        1 MOL      0.246000
    169 H72        -4.0320   -2.6640    2.6070 h1        1 MOL      0.135081
    170 H73        -1.8090   -1.8530    3.3210 hc        1 MOL     -0.001453
    171 H74        -2.1990   -0.3230    2.4750 hc        1 MOL     -0.001453
    172 H75        -2.3750   -1.9690    0.3860 hc        1 MOL     -0.087294
    173 H76        -1.3680   -3.0390    1.3660 hc        1 MOL     -0.087294
    174 N15        -5.3520   -0.0920    3.7220 n         1 MOL     -0.063826
    175 C58        -5.8900    0.5170    4.9010 c3        1 MOL     -0.138180
    176 H77        -6.9600    0.3130    4.9600 h1        1 MOL      0.048689
    177 H78        -5.3950    0.1080    5.7810 h1        1 MOL      0.048689
    178 H79        -5.7290    1.5940    4.8620 h1        1 MOL      0.048689
    179 H80        -5.7990    0.1120    2.8370 hn        1 MOL      0.176535
    180 Ca1         2.4090   -0.2100    0.2240 Ca        1 MOL      1.721934
    181 O27         2.6120   -0.1960    2.8690 oh        1 MOL     -0.881232
    182 H81         2.0340   -0.5790    3.5180 ho        1 MOL      0.418319
    183 H82         3.4010    0.0560    3.3640 ho        1 MOL      0.418319
    184 O28         5.0240   -0.2670    0.9660 oh        1 MOL     -0.881232
    185 H83         5.0260   -1.2180    1.1350 ho        1 MOL      0.418319
    186 H84         5.5410    0.0960    1.6740 ho        1 MOL      0.418319
    187 O29         1.1080    1.1400   -1.9520 oh        1 MOL     -0.881232
    188 H85         1.9440    1.5650   -2.1530 ho        1 MOL      0.418319
    189 H86         1.1470    0.3140   -2.4290 ho        1 MOL      0.418319
@<TRIPOS>BOND
     1    1    2 1   
     2    1    4 1   
     3    1    5 1   
     4    1    6 1   
     5    2    3 2   
     6    2    7 1   
     7    7    8 1   
     8    7   15 1   
     9    8    9 1   
    10    8   11 1   
    11    8   16 1   
    12    9   10 2   
    13    9   19 1   
    14   11   12 1   
    15   11   17 1   
    16   11   18 1   
    17   12   13 1   
    18   12   14 1   
    19   19   20 1   
    20   19   27 1   
    21   20   21 1   
    22   20   23 1   
    23   20   28 1   
    24   21   22 2   
    25   21   38 1   
    26   23   24 1   
    27   23   25 1   
    28   23   29 1   
    29   24   26 1   
    30   24   30 1   
    31   24   31 1   
    32   25   32 1   
    33   25   33 1   
    34   25   34 1   
    35   26   35 1   
    36   26   36 1   
    37   26   37 1   
    38   38   39 1   
    39   38   46 1   
    40   39   40 1   
    41   39   42 1   
    42   39   47 1   
    43   40   41 2   
    44   40   50 1   
    45   42   43 1   
    46   42   48 1   
    47   42   49 1   
    48   43   44 1   
    49   43   45 1   
    50   50   51 1   
    51   50   54 1   
    52   51   52 1   
    53   51   55 1   
    54   51   56 1   
    55   52   53 2   
    56   52   57 1   
    57   57   58 1   
    58   57   65 1   
    59   58   59 1   
    60   58   61 1   
    61   58   66 1   
    62   59   60 2   
    63   59   69 1   
    64   61   62 1   
    65   61   67 1   
    66   61   68 1   
    67   62   63 1   
    68   62   64 1   
    69   69   70 1   
    70   69   73 1   
    71   70   71 1   
    72   70   74 1   
    73   70   75 1   
    74   71   72 2   
    75   71   76 1   
    76   76   77 1   
    77   76   85 1   
    78   77   78 1   
    79   77   80 1   
    80   77   86 1   
    81   78   79 2   
    82   78   93 1   
    83   80   81 1   
    84   80   87 1   
    85   80   88 1   
    86   81   82 1   
    87   81   89 1   
    88   81   90 1   
    89   82   83 1   
    90   82   84 2   
    91   83   91 1   
    92   83   92 1   
    93   93   94 1   
    94   93  100 1   
    95   94   95 1   
    96   94   97 1   
    97   94  101 1   
    98   95   96 2   
    99   95  109 1   
   100   97   98 1   
   101   97   99 1   
   102   97  102 1   
   103   98  103 1   
   104   98  104 1   
   105   98  105 1   
   106   99  106 1   
   107   99  107 1   
   108   99  108 1   
   109  109  110 1   
   110  109  117 1   
   111  110  111 1   
   112  110  113 1   
   113  110  118 1   
   114  111  112 2   
   115  111  123 1   
   116  113  114 1   
   117  113  119 1   
   118  113  120 1   
   119  114  115 1   
   120  114  116 2   
   121  115  121 1   
   122  115  122 1   
   123  123  124 1   
   124  123  135 1   
   125  124  125 1   
   126  124  127 1   
   127  124  136 1   
   128  125  126 2   
   129  125  144 1   
   130  127  128 1   
   131  127  137 1   
   132  127  138 1   
   133  128  129 ar  
   134  128  130 ar  
   135  129  131 ar  
   136  129  139 1   
   137  130  132 ar  
   138  130  140 1   
   139  131  133 ar  
   140  131  141 1   
   141  132  133 ar  
   142  132  142 1   
   143  133  134 1   
   144  134  143 1   
   145  144  145 1   
   146  144  153 1   
   147  145  146 1   
   148  145  148 1   
   149  145  154 1   
   150  146  147 2   
   151  146  159 1   
   152  148  149 1   
   153  148  155 1   
   154  148  156 1   
   155  149  150 1   
   156  149  157 1   
   157  149  158 1   
   158  150  151 1   
   159  150  152 1   
   160  159  160 1   
   161  159  168 1   
   162  160  161 1   
   163  160  163 1   
   164  160  169 1   
   165  161  162 2   
   166  161  174 1   
   167  163  164 1   
   168  163  170 1   
   169  163  171 1   
   170  164  165 1   
   171  164  172 1   
   172  164  173 1   
   173  165  166 1   
   174  165  167 1   
   175  174  175 1   
   176  174  179 1   
   177  175  176 1   
   178  175  177 1   
   179  175  178 1   
   180  181  182 1   
   181  181  183 1   
   182  184  185 1   
   183  184  186 1   
   184  187  188 1   
   185  187  189 1   
@<TRIPOS>SUBSTRUCTURE
     1 MOL         1 TEMP              0 ****  ****    0 ROOT
