@<TRIPOS>MOLECULE
MOL
  179   176     1     0     0
SMALL
resp


@<TRIPOS>ATOM
      1 C1          1.6970    2.6650    6.0120 c3        1 MOL     -0.212147
      2 C2          1.2430    2.4940    4.5650 c         1 MOL      0.780711
      3 O1          2.0420    2.4750    3.6300 o         1 MOL     -0.636173
      4 H1          1.6940    1.6960    6.5110 hc        1 MOL      0.050905
      5 H2          2.7060    3.0790    6.0300 hc        1 MOL      0.050905
      6 H3          1.0180    3.3420    6.5290 hc        1 MOL      0.050905
      7 N1         -0.0810    2.4740    4.3520 n         1 MOL     -0.668522
      8 C3         -0.6900    2.1090    3.0240 c3        1 MOL     -0.029931
      9 C4         -0.6770    3.3850    2.0940 c         1 MOL      0.637732
     10 O2         -1.3710    4.3610    2.3120 o         1 MOL     -0.548213
     11 C5         -2.0620    1.5870    3.2270 c3        1 MOL     -0.228542
     12 C6         -2.5820    0.9820    1.8690 c         1 MOL      0.584372
     13 O3         -3.6950    0.4570    1.9000 o         1 MOL     -0.645824
     14 O4         -2.0430    1.2120    0.7460 o         1 MOL     -0.645824
     15 H4         -0.6290    2.5270    5.2080 hn        1 MOL      0.352772
     16 H5         -0.0530    1.3880    2.5180 h1        1 MOL      0.060644
     17 H6         -2.6170    2.4490    3.6220 hc        1 MOL      0.101938
     18 H7         -2.0560    0.8160    3.9910 hc        1 MOL      0.101938
     19 N2          0.1560    3.3750    1.0910 n         1 MOL     -0.043192
     20 C7          0.6710    4.5290    0.4060 c3        1 MOL     -0.321721
     21 C8         -0.2970    5.1480   -0.6460 c         1 MOL      0.577029
     22 O5         -0.4360    6.3350   -0.6600 o         1 MOL     -0.561235
     23 C9          1.9940    4.1170   -0.3300 c3        1 MOL     -0.013351
     24 C10         2.6870    5.4200   -0.8390 c3        1 MOL     -0.250526
     25 C11         4.0030    5.1040   -1.5460 c3        1 MOL      0.045124
     26 C12         4.6790    6.4140   -1.9670 c3        1 MOL     -0.076594
     27 N3          4.0160    7.1440   -3.0660 n4        1 MOL     -0.433558
     28 H8          0.6730    2.5630    0.7770 hn        1 MOL      0.114169
     29 H9          0.9700    5.3780    1.0190 h1        1 MOL      0.128996
     30 H10         1.7840    3.3570   -1.0860 hc        1 MOL      0.125200
     31 H11         2.6620    3.6250    0.3750 hc        1 MOL      0.125200
     32 H12         2.9300    5.9700    0.0650 hc        1 MOL      0.104518
     33 H13         2.0410    5.9290   -1.5540 hc        1 MOL      0.104518
     34 H14         3.7540    4.4980   -2.4210 hc        1 MOL      0.026631
     35 H15         4.7240    4.5520   -0.9460 hc        1 MOL      0.026631
     36 H16         5.7060    6.2660   -2.3050 hx        1 MOL      0.125307
     37 H17         4.7980    7.1460   -1.1640 hx        1 MOL      0.125307
     38 H18         3.0830    7.4260   -2.7960 hn        1 MOL      0.350937
     39 H19         4.6680    7.8620   -3.3480 hn        1 MOL      0.350937
     40 H20         3.8950    6.5420   -3.8690 hn        1 MOL      0.350937
     41 N4         -1.0800    4.3970   -1.4440 n         1 MOL     -0.563675
     42 C13        -2.3000    4.9370   -1.9930 c3        1 MOL      0.348047
     43 C14        -3.4870    4.8660   -0.9510 c         1 MOL      0.351597
     44 O6         -4.4230    5.6120   -0.9900 o         1 MOL     -0.546443
     45 C15        -2.6570    4.2920   -3.3480 c3        1 MOL     -0.375373
     46 C16        -2.7480    2.7830   -3.3960 c         1 MOL      0.827223
     47 O7         -2.7000    2.1270   -4.4770 o         1 MOL     -0.713111
     48 O8         -2.7860    2.1810   -2.3130 o         1 MOL     -0.713111
     49 H21        -0.9570    3.3950   -1.4090 hn        1 MOL      0.314670
     50 H22        -2.2280    5.9790   -2.2930 h1        1 MOL      0.034197
     51 H23        -1.8760    4.5880   -4.0520 hc        1 MOL      0.075652
     52 H24        -3.5370    4.7940   -3.7580 hc        1 MOL      0.075652
     53 N5         -3.3710    4.0010    0.0380 n         1 MOL      0.032666
     54 C17        -4.4800    3.6860    0.9020 c3        1 MOL     -0.080533
     55 C18        -5.6140    2.7660    0.4370 c         1 MOL      0.499858
     56 O9         -6.7170    2.8310    0.9570 o         1 MOL     -0.548165
     57 H25        -2.5290    3.4520    0.1330 hn        1 MOL      0.002360
     58 H26        -4.9240    4.5650    1.3590 h1        1 MOL      0.070983
     59 H27        -3.9650    3.2680    1.7630 h1        1 MOL      0.070983
     60 N6         -5.3660    1.8340   -0.5120 n         1 MOL     -0.106012
     61 C19        -6.3750    0.9950   -1.0940 c3        1 MOL     -0.054891
     62 C20        -6.9550    0.0650    0.0070 c         1 MOL      0.463051
     63 O10        -8.1120   -0.3180   -0.1080 o         1 MOL     -0.564191
     64 C21        -5.8580    0.1280   -2.2730 c3        1 MOL     -0.231916
     65 C22        -5.1910   -1.1110   -1.8350 c         1 MOL      0.592119
     66 N7         -5.7440   -2.3500   -1.9790 n         1 MOL     -0.785466
     67 O11        -4.0840   -1.0560   -1.3060 o         1 MOL     -0.646392
     68 H28        -4.4020    1.6990   -0.7910 hn        1 MOL      0.023534
     69 H29        -7.1310    1.7130   -1.4200 h1        1 MOL      0.099322
     70 H30        -5.2470    0.7700   -2.9060 hc        1 MOL      0.116541
     71 H31        -6.6760   -0.1820   -2.9100 hc        1 MOL      0.116541
     72 H32        -6.5850   -2.5760   -2.5070 hn        1 MOL      0.390462
     73 H33        -5.0650   -3.0450   -1.7250 hn        1 MOL      0.390462
     74 N8         -6.1800   -0.3060    0.9950 n         1 MOL     -0.114877
     75 C23        -6.5420   -1.3080    1.9750 c3        1 MOL     -0.061566
     76 C24        -5.3270   -2.1820    2.4120 c         1 MOL      0.474442
     77 O12        -5.5120   -2.7510    3.5140 o         1 MOL     -0.556328
     78 H34        -5.3330    0.2180    1.1210 hn        1 MOL      0.196216
     79 H35        -7.2440   -1.8850    1.3780 h1        1 MOL      0.065636
     80 H36        -7.1170   -0.9070    2.7980 h1        1 MOL      0.065636
     81 N9         -4.3580   -2.3680    1.5490 n         1 MOL     -0.202226
     82 C25        -3.2320   -3.2910    1.7700 c3        1 MOL     -0.035079
     83 C26        -1.8000   -2.7890    1.4710 c         1 MOL      0.751704
     84 O13        -1.5440   -1.9700    0.5690 o         1 MOL     -0.718277
     85 C27        -3.6330   -4.6880    1.2790 c3        1 MOL     -0.217648
     86 C28        -3.7330   -4.9750   -0.2030 ca        1 MOL      0.151152
     87 C29        -2.6560   -4.7980   -1.0550 ca        1 MOL     -0.178459
     88 C30        -4.9500   -5.3330   -0.7850 ca        1 MOL     -0.178459
     89 C31        -2.7290   -5.1120   -2.4660 ca        1 MOL     -0.269087
     90 C32        -4.9800   -5.8380   -2.0920 ca        1 MOL     -0.269087
     91 C33        -3.9090   -5.7610   -2.9660 ca        1 MOL      0.317580
     92 O14        -4.0610   -6.1540   -4.2830 oh        1 MOL     -0.507761
     93 H37        -4.4570   -1.8390    0.6950 hn        1 MOL      0.143114
     94 H38        -3.2640   -3.4150    2.8510 h1        1 MOL      0.069248
     95 H39        -4.6560   -4.8180    1.6080 hc        1 MOL      0.082907
     96 H40        -2.9920   -5.4210    1.7740 hc        1 MOL      0.082907
     97 H41        -1.7730   -4.3000   -0.7010 ha        1 MOL      0.147518
     98 H42        -5.8030   -5.4620   -0.1340 ha        1 MOL      0.147518
     99 H43        -1.9040   -4.9570   -3.1340 ha        1 MOL      0.157532
    100 H44        -5.9140   -6.2700   -2.4070 ha        1 MOL      0.157532
    101 H45        -3.3260   -5.9250   -4.8590 ho        1 MOL      0.378380
    102 N10        -0.8340   -3.2040    2.2680 n         1 MOL     -0.512351
    103 C34         0.5980   -2.7110    2.1750 c3        1 MOL     -0.073705
    104 C35         1.5020   -3.5630    1.2550 c         1 MOL      0.456261
    105 O15         1.6590   -4.7640    1.4880 o         1 MOL     -0.549321
    106 C36         1.2970   -2.5520    3.5200 c3        1 MOL      0.484342
    107 C37         0.5720   -1.5280    4.4050 c3        1 MOL     -0.003890
    108 C38         2.7350   -2.0570    3.4510 c3        1 MOL     -0.536491
    109 C39         0.4920   -1.9660    5.8940 c3        1 MOL     -0.350404
    110 H46        -1.1650   -3.7200    3.0760 hn        1 MOL      0.296178
    111 H47         0.5400   -1.7230    1.7150 h1        1 MOL      0.056602
    112 H48         1.2940   -3.5140    4.0350 hc        1 MOL     -0.070708
    113 H49        -0.4850   -1.5540    4.1310 hc        1 MOL      0.029207
    114 H50         1.0560   -0.5600    4.2420 hc        1 MOL      0.029207
    115 H51         3.3590   -2.8610    3.0620 hc        1 MOL      0.107983
    116 H52         2.7240   -1.2190    2.7590 hc        1 MOL      0.107983
    117 H53         2.9740   -1.6590    4.4330 hc        1 MOL      0.107983
    118 H54        -0.0640   -2.8880    6.0070 hc        1 MOL      0.088106
    119 H55         1.5530   -2.1410    6.1040 hc        1 MOL      0.088106
    120 H56        -0.0680   -1.3230    6.5810 hc        1 MOL      0.088106
    121 N11         2.1360   -3.0070    0.2030 n         1 MOL     -0.202034
    122 C40         3.0960   -3.6890   -0.6430 c3        1 MOL     -0.006089
    123 C41         4.5780   -3.3980   -0.2600 c         1 MOL      0.391694
    124 O16         4.8810   -2.5150    0.5330 o         1 MOL     -0.340415
    125 C42         2.7590   -3.3090   -2.0840 c3        1 MOL      0.152876
    126 O17         1.5990   -3.9670   -2.5840 oh        1 MOL     -0.634504
    127 H57         2.0200   -2.0250   -0.0160 hn        1 MOL      0.435236
    128 H58         2.8860   -4.7460   -0.5200 h1        1 MOL      0.065639
    129 H59         3.5660   -3.6150   -2.7430 h1        1 MOL      0.023390
    130 H60         2.6500   -2.2310   -2.1940 h1        1 MOL      0.023390
    131 H61         1.8460   -4.7850   -3.0200 ho        1 MOL      0.429435
    132 N12         5.5670   -4.1410   -0.7950 n         1 MOL     -0.478042
    133 C43         6.9420   -3.9490   -0.4870 c3        1 MOL      0.215353
    134 C44         7.5030   -2.5100   -0.8520 c         1 MOL      0.383009
    135 O18         8.1250   -1.8680    0.0440 o         1 MOL     -0.496546
    136 C45         7.8150   -5.0340   -1.1920 c3        1 MOL     -0.524712
    137 H62         5.3230   -4.8890   -1.4310 hn        1 MOL      0.306845
    138 H63         7.1480   -4.0340    0.5790 h1        1 MOL      0.082748
    139 H64         7.5140   -6.0290   -0.8720 hc        1 MOL      0.151561
    140 H65         7.6540   -5.1250   -2.2700 hc        1 MOL      0.151561
    141 H66         8.8440   -4.7940   -0.9420 hc        1 MOL      0.151561
    142 N13         7.2190   -1.9190   -2.0030 n         1 MOL     -0.294401
    143 C46         7.7230   -0.5660   -2.3840 c3        1 MOL      0.063980
    144 C47         7.0990    0.4790   -1.4480 c         1 MOL      0.413169
    145 O19         7.7640    1.4410   -1.1350 o         1 MOL     -0.517439
    146 C48         7.5700   -0.3010   -3.9260 c3        1 MOL     -0.267744
    147 H67         6.6520   -2.4340   -2.6680 hn        1 MOL      0.203881
    148 H68         8.7990   -0.5730   -2.2090 h1        1 MOL      0.109107
    149 H69         8.0570   -1.0840   -4.5000 hc        1 MOL      0.085572
    150 H70         6.5040   -0.1680   -4.1120 hc        1 MOL      0.085572
    151 H71         7.9610    0.6890   -4.1870 hc        1 MOL      0.085572
    152 N14         5.9120    0.2910   -0.9100 n         1 MOL     -0.085680
    153 C49         5.1740    1.1640   -0.0040 c3        1 MOL     -0.242203
    154 C50         5.8030    1.0670    1.3940 c         1 MOL      0.545204
    155 O20         6.0280    2.0580    2.1190 o         1 MOL     -0.545949
    156 C51         3.6680    0.6920    0.2050 c3        1 MOL     -0.008796
    157 C52         2.8240    0.7370   -1.0360 c3        1 MOL      0.071727
    158 C53         1.3510    0.5850   -0.8050 c         1 MOL      0.846560
    159 O21         0.9850   -0.5020   -0.4600 o         1 MOL     -0.832520
    160 O22         0.5140    1.4070   -1.1900 o         1 MOL     -0.832520
    161 H72         5.5090   -0.6210   -1.0500 hn        1 MOL      0.103903
    162 H73         5.1560    2.1900   -0.3630 h1        1 MOL      0.120044
    163 H74         3.1430    1.1860    1.0230 hc        1 MOL      0.000776
    164 H75         3.5930   -0.3570    0.4680 hc        1 MOL      0.000776
    165 H76         3.1200    0.0490   -1.8280 hc        1 MOL     -0.074584
    166 H77         3.0160    1.7170   -1.4730 hc        1 MOL     -0.074584
    167 N15         6.1310   -0.1740    1.8420 n         1 MOL     -0.096134
    168 C54         6.8450   -0.3240    3.1240 c3        1 MOL     -0.341464
    169 H78         6.5240   -1.2450    3.6130 h1        1 MOL      0.127804
    170 H79         7.9190   -0.3670    2.9390 h1        1 MOL      0.127804
    171 H80         6.6200    0.5260    3.7680 h1        1 MOL      0.127804
    172 H81         6.0420   -1.0110    1.2990 hn        1 MOL      0.124646
    173 Ca1        -1.5970   -0.2340   -1.2270 Ca        1 MOL      1.855800
    174 O23        -2.1820   -0.1830   -3.7650 oh        1 MOL     -0.935466
    175 H82        -2.3340   -0.7680   -4.5120 ho        1 MOL      0.418594
    176 H83        -2.4100    0.6890   -4.0870 ho        1 MOL      0.418594
    177 O24        -0.3650   -2.2730   -2.6710 oh        1 MOL     -0.935466
    178 H84        -0.4930   -2.4090   -3.6070 ho        1 MOL      0.418594
    179 H85         0.4010   -2.8050   -2.4510 ho        1 MOL      0.418594
@<TRIPOS>BOND
     1    1    2 1   
     2    1    4 1   
     3    1    5 1   
     4    1    6 1   
     5    2    3 2   
     6    2    7 1   
     7    7    8 1   
     8    7   15 1   
     9    8    9 1   
    10    8   11 1   
    11    8   16 1   
    12    9   10 2   
    13    9   19 1   
    14   11   12 1   
    15   11   17 1   
    16   11   18 1   
    17   12   13 1   
    18   12   14 1   
    19   19   20 1   
    20   19   28 1   
    21   20   21 1   
    22   20   23 1   
    23   20   29 1   
    24   21   22 2   
    25   21   41 1   
    26   23   24 1   
    27   23   30 1   
    28   23   31 1   
    29   24   25 1   
    30   24   32 1   
    31   24   33 1   
    32   25   26 1   
    33   25   34 1   
    34   25   35 1   
    35   26   27 1   
    36   26   36 1   
    37   26   37 1   
    38   27   38 1   
    39   27   39 1   
    40   27   40 1   
    41   41   42 1   
    42   41   49 1   
    43   42   43 1   
    44   42   45 1   
    45   42   50 1   
    46   43   44 2   
    47   43   53 1   
    48   45   46 1   
    49   45   51 1   
    50   45   52 1   
    51   46   47 1   
    52   46   48 1   
    53   53   54 1   
    54   53   57 1   
    55   54   55 1   
    56   54   58 1   
    57   54   59 1   
    58   55   56 2   
    59   55   60 1   
    60   60   61 1   
    61   60   68 1   
    62   61   62 1   
    63   61   64 1   
    64   61   69 1   
    65   62   63 2   
    66   62   74 1   
    67   64   65 1   
    68   64   70 1   
    69   64   71 1   
    70   65   66 1   
    71   65   67 2   
    72   66   72 1   
    73   66   73 1   
    74   74   75 1   
    75   74   78 1   
    76   75   76 1   
    77   75   79 1   
    78   75   80 1   
    79   76   77 2   
    80   76   81 1   
    81   81   82 1   
    82   81   93 1   
    83   82   83 1   
    84   82   85 1   
    85   82   94 1   
    86   83   84 2   
    87   83  102 1   
    88   85   86 1   
    89   85   95 1   
    90   85   96 1   
    91   86   87 ar  
    92   86   88 ar  
    93   87   89 ar  
    94   87   97 1   
    95   88   90 ar  
    96   88   98 1   
    97   89   91 ar  
    98   89   99 1   
    99   90   91 ar  
   100   90  100 1   
   101   91   92 1   
   102   92  101 1   
   103  102  103 1   
   104  102  110 1   
   105  103  104 1   
   106  103  106 1   
   107  103  111 1   
   108  104  105 2   
   109  104  121 1   
   110  106  107 1   
   111  106  108 1   
   112  106  112 1   
   113  107  109 1   
   114  107  113 1   
   115  107  114 1   
   116  108  115 1   
   117  108  116 1   
   118  108  117 1   
   119  109  118 1   
   120  109  119 1   
   121  109  120 1   
   122  121  122 1   
   123  121  127 1   
   124  122  123 1   
   125  122  125 1   
   126  122  128 1   
   127  123  124 2   
   128  123  132 1   
   129  125  126 1   
   130  125  129 1   
   131  125  130 1   
   132  126  131 1   
   133  132  133 1   
   134  132  137 1   
   135  133  134 1   
   136  133  136 1   
   137  133  138 1   
   138  134  135 2   
   139  134  142 1   
   140  136  139 1   
   141  136  140 1   
   142  136  141 1   
   143  142  143 1   
   144  142  147 1   
   145  143  144 1   
   146  143  146 1   
   147  143  148 1   
   148  144  145 2   
   149  144  152 1   
   150  146  149 1   
   151  146  150 1   
   152  146  151 1   
   153  152  153 1   
   154  152  161 1   
   155  153  154 1   
   156  153  156 1   
   157  153  162 1   
   158  154  155 2   
   159  154  167 1   
   160  156  157 1   
   161  156  163 1   
   162  156  164 1   
   163  157  158 1   
   164  157  165 1   
   165  157  166 1   
   166  158  159 1   
   167  158  160 1   
   168  167  168 1   
   169  167  172 1   
   170  168  169 1   
   171  168  170 1   
   172  168  171 1   
   173  174  175 1   
   174  174  176 1   
   175  177  178 1   
   176  177  179 1   
@<TRIPOS>SUBSTRUCTURE
     1 MOL         1 TEMP              0 ****  ****    0 ROOT
