@<TRIPOS>MOLECULE
MOL
  189   185     1     0     0
SMALL
resp


@<TRIPOS>ATOM
      1 C1         -1.5720    2.3800    6.2480 c3        1 MOL     -0.337002
      2 C2         -1.4090    1.9930    4.7890 c         1 MOL      0.793627
      3 O1         -0.3100    2.2230    4.2680 o         1 MOL     -0.633442
      4 H1         -1.1850    1.5820    6.8810 hc        1 MOL      0.081206
      5 H2         -1.0200    3.2990    6.4440 hc        1 MOL      0.081206
      6 H3         -2.6280    2.5360    6.4660 hc        1 MOL      0.081206
      7 N1         -2.5260    1.5580    4.1110 n         1 MOL     -0.619650
      8 C3         -2.6210    1.5120    2.6110 c3        1 MOL      0.025741
      9 C4         -2.9300    2.8880    2.0190 c         1 MOL      0.583499
     10 O2         -3.9250    3.5030    2.4110 o         1 MOL     -0.560446
     11 C5         -3.8490    0.6700    2.3360 c3        1 MOL     -0.358146
     12 C6         -4.0960    0.4420    0.8530 c         1 MOL      0.542218
     13 O3         -5.2300   -0.0790    0.5800 o         1 MOL     -0.539932
     14 O4         -3.2960    0.8420   -0.0230 o         1 MOL     -0.539932
     15 H4         -3.4280    1.6570    4.5530 hn        1 MOL      0.337289
     16 H5         -1.7400    1.0940    2.1060 h1        1 MOL      0.087469
     17 H6         -4.7660    1.0820    2.7470 hc        1 MOL      0.119236
     18 H7         -3.7030   -0.2830    2.8490 hc        1 MOL      0.119236
     19 N2         -2.1260    3.5330    1.1880 n         1 MOL     -0.484090
     20 C7         -2.3690    4.8720    0.5950 c3        1 MOL      0.076941
     21 C8         -3.4870    4.9180   -0.4690 c         1 MOL      0.312237
     22 O5         -4.0000    5.9910   -0.8440 o         1 MOL     -0.538893
     23 C9         -1.0300    5.4040   -0.0420 c3        1 MOL      0.001665
     24 C10         0.1540    5.4890    0.9180 c3        1 MOL     -0.059105
     25 C11         1.3880    6.0550    0.2070 c3        1 MOL     -0.218675
     26 C12         2.7040    6.0130    1.0260 c3        1 MOL      0.048615
     27 N3          2.6240    6.8280    2.2810 n4        1 MOL     -0.440354
     28 H8         -1.4440    2.8780    0.8520 hn        1 MOL      0.319337
     29 H9         -2.5830    5.5540    1.4100 h1        1 MOL      0.085294
     30 H10        -1.3490    6.4400   -0.2090 hc        1 MOL      0.030721
     31 H11        -0.7190    4.8560   -0.9270 hc        1 MOL      0.030721
     32 H12         0.2850    4.4360    1.1630 hc        1 MOL      0.043366
     33 H13        -0.0340    6.0390    1.8450 hc        1 MOL      0.043366
     34 H14         1.1750    7.0280   -0.2370 hc        1 MOL      0.097853
     35 H15         1.4930    5.5410   -0.7500 hc        1 MOL      0.097853
     36 H16         3.5030    6.3790    0.3700 hx        1 MOL      0.092385
     37 H17         2.9430    4.9840    1.3050 hx        1 MOL      0.092385
     38 H18         3.4680    6.5500    2.7660 hn        1 MOL      0.352789
     39 H19         2.4880    7.8040    2.0450 hn        1 MOL      0.352789
     40 H20         1.8070    6.6420    2.8590 hn        1 MOL      0.352789
     41 N4         -3.8140    3.7710   -1.0640 n         1 MOL      0.205462
     42 C13        -4.7630    3.5840   -2.1420 c3        1 MOL     -0.062553
     43 C14        -6.1460    3.0870   -1.7140 c         1 MOL      0.394396
     44 O6         -7.1440    3.4060   -2.3300 o         1 MOL     -0.521585
     45 C15        -4.1490    2.5810   -3.0640 c3        1 MOL      0.202110
     46 C16        -2.6160    2.8000   -3.2580 c         1 MOL      0.544845
     47 O7         -2.2790    3.6510   -4.1310 o         1 MOL     -0.623287
     48 O8         -1.7790    2.1830   -2.4740 o         1 MOL     -0.623287
     49 H21        -3.4930    2.8640   -0.7410 hn        1 MOL     -0.242444
     50 H22        -4.8910    4.4950   -2.7220 h1        1 MOL      0.069970
     51 H23        -4.6520    2.6210   -4.0300 hc        1 MOL     -0.053462
     52 H24        -4.3340    1.6130   -2.5860 hc        1 MOL     -0.053462
     53 N5         -6.3350    2.3000   -0.6940 n         1 MOL     -0.252677
     54 C17        -7.5840    1.6400   -0.4130 c3        1 MOL     -0.121793
     55 C18        -7.8430    0.3060   -1.1290 c         1 MOL      0.455575
     56 O9         -8.9710   -0.0440   -1.4440 o         1 MOL     -0.579701
     57 H25        -5.4980    2.0850   -0.1750 hn        1 MOL      0.241980
     58 H26        -8.4090    2.3300   -0.5910 h1        1 MOL      0.093628
     59 H27        -7.5890    1.4300    0.6580 h1        1 MOL      0.093628
     60 N6         -6.7840   -0.2830   -1.6290 n         1 MOL     -0.181759
     61 C19        -6.7090   -1.6180   -2.2840 c3        1 MOL      0.020541
     62 C20        -6.6720   -2.7330   -1.2530 c         1 MOL      0.391968
     63 O10        -6.9770   -3.8550   -1.6540 o         1 MOL     -0.555989
     64 C21        -5.5670   -1.7190   -3.2660 c3        1 MOL     -0.297409
     65 C22        -4.2300   -1.4200   -2.6430 c         1 MOL      0.921924
     66 O11        -3.3600   -0.6780   -3.2040 o         1 MOL     -0.838446
     67 O12        -3.8940   -1.9780   -1.6120 o         1 MOL     -0.838446
     68 H28        -5.9040    0.1030   -1.3450 hn        1 MOL      0.230794
     69 H29        -7.6050   -1.7450   -2.8910 h1        1 MOL      0.112488
     70 H30        -5.7540   -0.9280   -3.9980 hc        1 MOL      0.075828
     71 H31        -5.6030   -2.6900   -3.7440 hc        1 MOL      0.075828
     72 N7         -6.5570   -2.4910    0.0480 n         1 MOL     -0.108214
     73 C23        -6.6750   -3.5180    1.0930 c3        1 MOL     -0.190403
     74 C24        -5.3750   -4.3290    1.2280 c         1 MOL      0.592569
     75 O13        -5.4050   -5.3400    1.8920 o         1 MOL     -0.569893
     76 H32        -6.3850   -1.5540    0.3800 hn        1 MOL      0.132898
     77 H33        -7.5460   -4.1350    0.9070 h1        1 MOL      0.099453
     78 H34        -6.8110   -3.0880    2.0910 h1        1 MOL      0.099453
     79 N8         -4.2450   -3.8590    0.6790 n         1 MOL     -0.416872
     80 C25        -2.8940   -4.3910    0.8820 c3        1 MOL      0.108806
     81 C26        -1.7600   -3.2860    1.0820 c         1 MOL      0.529508
     82 O14        -1.8240   -2.1260    0.7390 o         1 MOL     -0.547221
     83 C27        -2.4210   -5.4590   -0.0900 c3        1 MOL      0.267867
     84 C28        -3.4050   -6.6440   -0.1700 c3        1 MOL     -0.426922
     85 O15        -2.1740   -4.9530   -1.3940 oh        1 MOL     -0.610752
     86 H35        -4.2380   -2.9620    0.2110 hn        1 MOL      0.299588
     87 H36        -2.8690   -4.9320    1.8290 h1        1 MOL      0.013530
     88 H37        -1.4860   -5.7750    0.3680 h1        1 MOL      0.030165
     89 H38        -3.0160   -4.9330   -1.8660 ho        1 MOL      0.430409
     90 H39        -3.4920   -7.1960    0.7680 hc        1 MOL      0.122218
     91 H40        -4.3870   -6.2760   -0.4550 hc        1 MOL      0.122218
     92 H41        -3.1360   -7.3370   -0.9630 hc        1 MOL      0.122218
     93 N9         -0.6890   -3.7720    1.6390 n         1 MOL     -0.508816
     94 C29         0.5810   -3.0670    1.7550 c3        1 MOL      0.079926
     95 C30         1.7280   -3.6990    0.9970 c         1 MOL      0.575451
     96 O16         1.9760   -4.8570    1.2480 o         1 MOL     -0.553573
     97 C31         0.8430   -2.8030    3.2750 c3        1 MOL     -0.091260
     98 C32        -0.2250   -1.8590    3.9400 c3        1 MOL      0.230490
     99 C33         2.2200   -2.3270    3.7110 c3        1 MOL     -0.095331
    100 C34        -0.5190   -1.9930    5.4640 c3        1 MOL     -0.355463
    101 H42        -0.6270   -4.7590    1.8430 hn        1 MOL      0.292638
    102 H43         0.4770   -2.1120    1.2480 h1        1 MOL      0.108091
    103 H44         0.5150   -3.7040    3.7920 hc        1 MOL      0.038599
    104 H45        -1.2380   -1.9320    3.5420 hc        1 MOL      0.006738
    105 H46         0.0450   -0.8190    3.7510 hc        1 MOL      0.006738
    106 H47         2.4190   -1.2680    3.5620 hc        1 MOL      0.013124
    107 H48         2.4010   -2.6030    4.7500 hc        1 MOL      0.013124
    108 H49         2.9900   -2.7690    3.0880 hc        1 MOL      0.013124
    109 H50         0.4690   -2.0370    5.9260 hc        1 MOL      0.081201
    110 H51        -1.0920   -1.1500    5.8400 hc        1 MOL      0.081201
    111 H52        -1.0980   -2.8970    5.6290 hc        1 MOL      0.081201
    112 N10         2.4440   -2.8230    0.2700 n         1 MOL     -0.237616
    113 C35         3.7230   -3.0880   -0.4650 c3        1 MOL      0.010924
    114 C36         4.9220   -2.4960    0.2910 c         1 MOL      0.335765
    115 O17         4.7540   -1.6370    1.1860 o         1 MOL     -0.196114
    116 C37         3.7610   -2.4770   -1.8840 c3        1 MOL      0.177030
    117 C38         2.7840   -3.1090   -2.9380 c3        1 MOL     -0.306276
    118 O18         3.3680   -1.1150   -1.8800 oh        1 MOL     -0.610021
    119 H53         2.0710   -1.8820    0.1590 hn        1 MOL     -0.005596
    120 H54         3.9040   -4.1610   -0.5300 h1        1 MOL      0.074724
    121 H55         4.7900   -2.4440   -2.2540 h1        1 MOL      0.051924
    122 H56         2.4970   -1.0950   -1.4840 ho        1 MOL      0.458147
    123 H57         2.9060   -4.1920   -3.0330 hc        1 MOL      0.094465
    124 H58         1.7750   -2.8800   -2.5890 hc        1 MOL      0.094465
    125 H59         3.0790   -2.7580   -3.9260 hc        1 MOL      0.094465
    126 N11         6.1880   -2.8200   -0.1390 n         1 MOL     -0.393574
    127 C39         7.4490   -2.0930    0.1380 c3        1 MOL     -0.092628
    128 C40         7.2960   -0.5930    0.1760 c         1 MOL      0.338912
    129 O19         7.7840    0.0760    1.0910 o         1 MOL     -0.441350
    130 C41         8.5200   -2.4020   -0.8860 c3        1 MOL      0.259405
    131 C42         8.8250   -3.9370   -0.9840 c3        1 MOL     -0.418974
    132 O20         8.2540   -1.9520   -2.1840 oh        1 MOL     -0.665606
    133 H60         6.2770   -3.4970   -0.8780 hn        1 MOL      0.274153
    134 H61         7.8440   -2.5080    1.0630 h1        1 MOL      0.142212
    135 H62         9.3910   -1.8910   -0.4670 h1        1 MOL      0.057341
    136 H63         9.0570   -1.9630   -2.7040 ho        1 MOL      0.435113
    137 H64         8.1130   -4.3400   -1.7030 hc        1 MOL      0.125429
    138 H65         9.8300   -4.0400   -1.3920 hc        1 MOL      0.125429
    139 H66         8.7500   -4.4780   -0.0340 hc        1 MOL      0.125429
    140 N12         6.5700   -0.0710   -0.8590 n         1 MOL     -0.170064
    141 C43         6.5310    1.4000   -0.9650 c3        1 MOL     -0.112951
    142 C44         5.8720    2.1150    0.2170 c         1 MOL      0.362730
    143 O21         6.2780    3.1060    0.7520 o         1 MOL     -0.521328
    144 C45         5.7880    1.6210   -2.2550 c3        1 MOL     -0.174552
    145 C46         6.3870    1.1070   -3.6260 c3        1 MOL     -0.067037
    146 C47         7.6330    1.9580   -3.9440 c3        1 MOL     -0.011570
    147 C48         8.5400    1.2120   -4.8940 c3        1 MOL     -0.065928
    148 N13         7.8430    0.9230   -6.1600 n4        1 MOL     -0.106247
    149 H67         6.2470   -0.7060   -1.5840 hn        1 MOL      0.294784
    150 H68         7.4980    1.9190   -0.9780 h1        1 MOL      0.121834
    151 H69         5.5560    2.6880   -2.2860 hc        1 MOL      0.076531
    152 H70         4.7920    1.1990   -2.1640 hc        1 MOL      0.076531
    153 H71         5.6910    1.4110   -4.4080 hc        1 MOL      0.047145
    154 H72         6.5890    0.0370   -3.6290 hc        1 MOL      0.047145
    155 H73         8.2920    2.1760   -3.1040 hc        1 MOL      0.065848
    156 H74         7.3410    2.9310   -4.3400 hc        1 MOL      0.065848
    157 H75         8.8150    0.2420   -4.4840 hx        1 MOL      0.083614
    158 H76         9.3540    1.9020   -5.0920 hx        1 MOL      0.083614
    159 H77         8.4650    0.5610   -6.8730 hn        1 MOL      0.232772
    160 H78         7.0770    0.2670   -6.1630 hn        1 MOL      0.232772
    161 H79         7.5170    1.8030   -6.5370 hn        1 MOL      0.232772
    162 N14         4.9690    1.3800    0.9080 n         1 MOL      0.051775
    163 C49         4.1160    1.6660    2.0170 c3        1 MOL     -0.271303
    164 C50         4.6760    1.1240    3.3800 c         1 MOL      0.555086
    165 O22         4.5460    1.7780    4.3730 o         1 MOL     -0.557100
    166 C51         2.7460    1.0470    1.7220 c3        1 MOL      0.207501
    167 C52         2.1230    1.6290    0.4890 c3        1 MOL      0.063801
    168 C53         0.8690    0.8520    0.0800 c         1 MOL      0.464462
    169 O23         1.0220   -0.2670   -0.4260 o         1 MOL     -0.644025
    170 O24        -0.2990    1.2920    0.2830 o         1 MOL     -0.644025
    171 H80         4.8640    0.4700    0.4980 hn        1 MOL      0.043498
    172 H81         4.0580    2.7480    2.1160 h1        1 MOL      0.094321
    173 H82         2.0850    1.3260    2.5330 hc        1 MOL      0.009104
    174 H83         2.9500   -0.0260    1.7010 hc        1 MOL      0.009104
    175 H84         2.8740    1.7080   -0.2990 hc        1 MOL     -0.030176
    176 H85         1.9160    2.6710    0.7460 hc        1 MOL     -0.030176
    177 N15         5.3490   -0.0290    3.3560 n         1 MOL     -0.224329
    178 C54         6.0080   -0.8020    4.4330 c3        1 MOL     -0.114049
    179 H86         5.5840   -1.8050    4.4720 h1        1 MOL      0.070619
    180 H87         7.0770   -0.8680    4.2300 h1        1 MOL      0.070619
    181 H88         5.8490   -0.3020    5.3880 h1        1 MOL      0.070619
    182 H89         5.3640   -0.5190    2.4700 hn        1 MOL      0.121764
    183 Ca1        -1.4730   -0.2890   -1.4970 Ca        1 MOL      1.743353
    184 O25         0.1260    0.3990   -3.4710 oh        1 MOL     -0.832320
    185 H90         1.0290    0.4770   -3.7680 ho        1 MOL      0.386624
    186 H91        -0.2680    1.2460   -3.6630 ho        1 MOL      0.386624
    187 O26        -0.7970   -2.7200   -2.3950 oh        1 MOL     -0.832320
    188 H92        -0.2400   -3.1670   -3.0300 ho        1 MOL      0.386624
    189 H93        -1.4990   -3.3430   -2.2050 ho        1 MOL      0.386624
@<TRIPOS>BOND
     1    1    2 1   
     2    1    4 1   
     3    1    5 1   
     4    1    6 1   
     5    2    3 2   
     6    2    7 1   
     7    7    8 1   
     8    7   15 1   
     9    8    9 1   
    10    8   11 1   
    11    8   16 1   
    12    9   10 2   
    13    9   19 1   
    14   11   12 1   
    15   11   17 1   
    16   11   18 1   
    17   12   13 1   
    18   12   14 1   
    19   19   20 1   
    20   19   28 1   
    21   20   21 1   
    22   20   23 1   
    23   20   29 1   
    24   21   22 2   
    25   21   41 1   
    26   23   24 1   
    27   23   30 1   
    28   23   31 1   
    29   24   25 1   
    30   24   32 1   
    31   24   33 1   
    32   25   26 1   
    33   25   34 1   
    34   25   35 1   
    35   26   27 1   
    36   26   36 1   
    37   26   37 1   
    38   27   38 1   
    39   27   39 1   
    40   27   40 1   
    41   41   42 1   
    42   41   49 1   
    43   42   43 1   
    44   42   45 1   
    45   42   50 1   
    46   43   44 2   
    47   43   53 1   
    48   45   46 1   
    49   45   51 1   
    50   45   52 1   
    51   46   47 1   
    52   46   48 1   
    53   53   54 1   
    54   53   57 1   
    55   54   55 1   
    56   54   58 1   
    57   54   59 1   
    58   55   56 2   
    59   55   60 1   
    60   60   61 1   
    61   60   68 1   
    62   61   62 1   
    63   61   64 1   
    64   61   69 1   
    65   62   63 2   
    66   62   72 1   
    67   64   65 1   
    68   64   70 1   
    69   64   71 1   
    70   65   66 1   
    71   65   67 1   
    72   72   73 1   
    73   72   76 1   
    74   73   74 1   
    75   73   77 1   
    76   73   78 1   
    77   74   75 2   
    78   74   79 1   
    79   79   80 1   
    80   79   86 1   
    81   80   81 1   
    82   80   83 1   
    83   80   87 1   
    84   81   82 2   
    85   81   93 1   
    86   83   84 1   
    87   83   85 1   
    88   83   88 1   
    89   84   90 1   
    90   84   91 1   
    91   84   92 1   
    92   85   89 1   
    93   93   94 1   
    94   93  101 1   
    95   94   95 1   
    96   94   97 1   
    97   94  102 1   
    98   95   96 2   
    99   95  112 1   
   100   97   98 1   
   101   97   99 1   
   102   97  103 1   
   103   98  100 1   
   104   98  104 1   
   105   98  105 1   
   106   99  106 1   
   107   99  107 1   
   108   99  108 1   
   109  100  109 1   
   110  100  110 1   
   111  100  111 1   
   112  112  113 1   
   113  112  119 1   
   114  113  114 1   
   115  113  116 1   
   116  113  120 1   
   117  114  115 2   
   118  114  126 1   
   119  116  117 1   
   120  116  118 1   
   121  116  121 1   
   122  117  123 1   
   123  117  124 1   
   124  117  125 1   
   125  118  122 1   
   126  126  127 1   
   127  126  133 1   
   128  127  128 1   
   129  127  130 1   
   130  127  134 1   
   131  128  129 2   
   132  128  140 1   
   133  130  131 1   
   134  130  132 1   
   135  130  135 1   
   136  131  137 1   
   137  131  138 1   
   138  131  139 1   
   139  132  136 1   
   140  140  141 1   
   141  140  149 1   
   142  141  142 1   
   143  141  144 1   
   144  141  150 1   
   145  142  143 2   
   146  142  162 1   
   147  144  145 1   
   148  144  151 1   
   149  144  152 1   
   150  145  146 1   
   151  145  153 1   
   152  145  154 1   
   153  146  147 1   
   154  146  155 1   
   155  146  156 1   
   156  147  148 1   
   157  147  157 1   
   158  147  158 1   
   159  148  159 1   
   160  148  160 1   
   161  148  161 1   
   162  162  163 1   
   163  162  171 1   
   164  163  164 1   
   165  163  166 1   
   166  163  172 1   
   167  164  165 2   
   168  164  177 1   
   169  166  167 1   
   170  166  173 1   
   171  166  174 1   
   172  167  168 1   
   173  167  175 1   
   174  167  176 1   
   175  168  169 1   
   176  168  170 1   
   177  177  178 1   
   178  177  182 1   
   179  178  179 1   
   180  178  180 1   
   181  178  181 1   
   182  184  185 1   
   183  184  186 1   
   184  187  188 1   
   185  187  189 1   
@<TRIPOS>SUBSTRUCTURE
     1 MOL         1 TEMP              0 ****  ****    0 ROOT
