@<TRIPOS>MOLECULE
MOL
  179   176     1     0     0
SMALL
resp


@<TRIPOS>ATOM
      1 C1          1.5570    1.9710    6.5320 c3        1 MOL     -0.201815
      2 C2          1.1660    1.5090    5.1090 c         1 MOL      0.708063
      3 O1          2.0120    1.2640    4.2060 o         1 MOL     -0.592489
      4 H1          1.5730    1.1100    7.2010 hc        1 MOL      0.054566
      5 H2          2.5460    2.4290    6.5070 hc        1 MOL      0.054566
      6 H3          0.8290    2.6970    6.8920 hc        1 MOL      0.054566
      7 N1         -0.1390    1.5870    4.7950 n         1 MOL     -0.557434
      8 C3         -0.6360    1.7820    3.4470 c3        1 MOL     -0.046605
      9 C4         -0.2190    3.1840    2.9200 c         1 MOL      0.636503
     10 O2         -0.3960    4.1560    3.6400 o         1 MOL     -0.554569
     11 C5         -2.1630    1.4500    3.4310 c3        1 MOL     -0.164295
     12 C6         -2.7480    1.3360    2.0150 c         1 MOL      0.870328
     13 O3         -1.9660    1.5570    1.0060 o         1 MOL     -0.781014
     14 O4         -3.9550    0.9730    1.8760 o         1 MOL     -0.781014
     15 H4         -0.7540    1.7580    5.5770 hn        1 MOL      0.316771
     16 H5         -0.1470    0.9870    2.8860 h1        1 MOL      0.102908
     17 H6         -2.7390    2.0460    4.1330 hc        1 MOL      0.058960
     18 H7         -2.2800    0.4450    3.8460 hc        1 MOL      0.058960
     19 N2          0.3610    3.3910    1.7510 n         1 MOL     -0.308460
     20 C7          0.5740    4.7530    1.1640 c3        1 MOL     -0.138600
     21 C8         -0.7390    5.4590    0.8770 c         1 MOL      0.485692
     22 O5         -0.9010    6.6780    1.1520 o         1 MOL     -0.534081
     23 C9          1.4160    4.6740   -0.1380 c3        1 MOL      0.170445
     24 C10         1.8140    6.0480   -0.7080 c3        1 MOL     -0.361400
     25 C11         2.3580    5.8420   -2.1710 c3        1 MOL      0.246153
     26 C12         3.3700    6.7930   -2.6500 c3        1 MOL      0.214225
     27 N3          3.8560    6.5420   -4.0830 n4        1 MOL     -0.520200
     28 H8          0.8080    2.6500    1.2180 hn        1 MOL      0.186152
     29 H9          1.0930    5.2920    1.9660 h1        1 MOL      0.101595
     30 H10         0.8090    4.1800   -0.9040 hc        1 MOL      0.053926
     31 H11         2.2720    4.0700    0.1480 hc        1 MOL      0.053926
     32 H12         2.6120    6.4020   -0.0490 hc        1 MOL      0.098971
     33 H13         0.9950    6.7560   -0.7800 hc        1 MOL      0.098971
     34 H14         1.5220    5.8450   -2.8710 hc        1 MOL     -0.079837
     35 H15         2.7620    4.8300   -2.2330 hc        1 MOL     -0.079837
     36 H16         4.2240    6.6360   -2.0040 hx        1 MOL      0.019670
     37 H17         3.0770    7.8260   -2.4470 hx        1 MOL      0.019670
     38 H18         4.7220    7.0690   -4.0920 hn        1 MOL      0.366378
     39 H19         4.0190    5.5480   -4.1710 hn        1 MOL      0.366378
     40 H20         3.1850    6.8050   -4.7910 hn        1 MOL      0.366378
     41 N4         -1.6610    4.7180    0.1710 n         1 MOL     -0.149929
     42 C13        -2.6460    5.3590   -0.7280 c3        1 MOL     -0.100740
     43 C14        -4.0620    4.9150   -0.5100 c         1 MOL      0.470093
     44 O6         -5.0130    5.3050   -1.2320 o         1 MOL     -0.568969
     45 C15        -2.1630    5.1310   -2.2070 c3        1 MOL     -0.071439
     46 C16        -1.6360    3.7350   -2.5550 c         1 MOL      0.886362
     47 O7         -1.2110    3.6040   -3.7320 o         1 MOL     -0.776627
     48 O8         -1.9130    2.7390   -1.8390 o         1 MOL     -0.776627
     49 H21        -1.5430    3.7230    0.0600 hn        1 MOL      0.001300
     50 H22        -2.7010    6.4340   -0.5720 h1        1 MOL      0.113263
     51 H23        -1.3300    5.7880   -2.4680 hc        1 MOL      0.031637
     52 H24        -2.9560    5.3460   -2.9240 hc        1 MOL      0.031637
     53 N5         -4.2780    4.0600    0.4450 n         1 MOL     -0.153453
     54 C17        -5.6400    3.8010    0.9570 c3        1 MOL     -0.197543
     55 C18        -6.4920    2.6440    0.3050 c         1 MOL      0.582965
     56 O9         -7.6210    2.4220    0.6970 o         1 MOL     -0.561527
     57 H25        -3.4250    3.7330    0.8750 hn        1 MOL      0.167498
     58 H26        -6.2730    4.6860    1.0000 h1        1 MOL      0.107486
     59 H27        -5.4400    3.5460    1.9930 h1        1 MOL      0.107486
     60 N6         -5.8890    1.9070   -0.6030 n         1 MOL     -0.327292
     61 C19        -6.4410    0.8170   -1.3550 c3        1 MOL     -0.026947
     62 C20        -6.4960   -0.5200   -0.5440 c         1 MOL      0.242367
     63 O10        -6.9460   -1.5410   -1.0150 o         1 MOL     -0.428684
     64 C21        -5.7980    0.5930   -2.7120 c3        1 MOL     -0.223801
     65 C22        -4.6110   -0.2940   -2.7590 c         1 MOL      0.684244
     66 N7         -4.7110   -1.3570   -3.4210 n         1 MOL     -0.728027
     67 O11        -3.5280   -0.1640   -2.1140 o         1 MOL     -0.743815
     68 H28        -4.8920    2.0310   -0.5710 hn        1 MOL      0.248793
     69 H29        -7.4790    1.1030   -1.4710 h1        1 MOL      0.154004
     70 H30        -5.6150    1.5730   -3.1600 hc        1 MOL      0.098164
     71 H31        -6.4960    0.1130   -3.4000 hc        1 MOL      0.098164
     72 H32        -5.5490   -1.5730   -3.9350 hn        1 MOL      0.379874
     73 H33        -3.9080   -1.9780   -3.3990 hn        1 MOL      0.379874
     74 N8         -5.9560   -0.5290    0.6920 n         1 MOL     -0.036524
     75 C23        -6.1920   -1.6540    1.6280 c3        1 MOL     -0.297704
     76 C24        -5.2040   -2.8120    1.4600 c         1 MOL      0.557160
     77 O12        -5.4000   -3.9200    1.9870 o         1 MOL     -0.543201
     78 H34        -5.3880    0.2470    0.9950 hn        1 MOL      0.237208
     79 H35        -7.2170   -2.0050    1.5520 h1        1 MOL      0.141048
     80 H36        -6.1620   -1.3280    2.6720 h1        1 MOL      0.141048
     81 N9         -4.0480   -2.6120    0.8320 n         1 MOL     -0.210955
     82 C25        -2.9270   -3.5290    0.6380 c3        1 MOL      0.016468
     83 C26        -1.5900   -2.7560    0.8270 c         1 MOL      0.629793
     84 O13        -1.4570   -1.5490    0.5670 o         1 MOL     -0.670568
     85 C27        -3.0360   -4.1650   -0.8190 c3        1 MOL      0.079698
     86 C28        -4.3020   -5.0260   -0.9440 ca        1 MOL     -0.065330
     87 C29        -5.4830   -4.5100   -1.4260 ca        1 MOL     -0.215915
     88 C30        -4.3110   -6.3370   -0.4780 ca        1 MOL     -0.215915
     89 C31        -6.6520   -5.2630   -1.5860 ca        1 MOL     -0.079579
     90 C32        -5.4940   -7.1200   -0.5190 ca        1 MOL     -0.079579
     91 C33        -6.6470   -6.6000   -1.2110 ca        1 MOL      0.212684
     92 O14        -7.7430   -7.4230   -1.4370 oh        1 MOL     -0.498359
     93 H37        -3.7200   -1.6520    0.8710 hn        1 MOL      0.150250
     94 H38        -3.0170   -4.3380    1.3700 h1        1 MOL      0.068088
     95 H39        -2.0850   -4.6540   -1.0160 hc        1 MOL      0.003605
     96 H40        -3.0140   -3.4070   -1.6060 hc        1 MOL      0.003605
     97 H41        -5.5120   -3.4900   -1.7770 ha        1 MOL      0.123094
     98 H42        -3.4630   -6.8310   -0.0320 ha        1 MOL      0.123094
     99 H43        -7.5450   -4.8540   -2.0300 ha        1 MOL      0.100028
    100 H44        -5.5400   -8.1700   -0.2830 ha        1 MOL      0.100028
    101 H45        -7.7190   -8.3310   -1.1210 ho        1 MOL      0.377454
    102 N10        -0.5060   -3.4530    1.1900 n         1 MOL     -0.556181
    103 C34         0.8670   -2.9310    1.4290 c3        1 MOL     -0.009029
    104 C35         1.8650   -3.6340    0.5090 c         1 MOL      0.462807
    105 O15         2.2770   -4.8160    0.7420 o         1 MOL     -0.532042
    106 C36         1.2610   -2.9410    2.9410 c3        1 MOL      0.067352
    107 C37         0.1910   -2.2070    3.7680 c3        1 MOL      0.457939
    108 C38         2.6230   -2.2340    3.2060 c3        1 MOL     -0.415805
    109 C39         0.5350   -2.0590    5.2230 c3        1 MOL     -0.338742
    110 H46        -0.5670   -4.4660    1.1870 hn        1 MOL      0.316110
    111 H47         0.8450   -1.8850    1.1400 h1        1 MOL      0.101469
    112 H48         1.4420   -3.9460    3.3260 hc        1 MOL      0.010800
    113 H49        -0.7120   -2.8030    3.6850 hc        1 MOL     -0.104887
    114 H50         0.0780   -1.1710    3.4630 hc        1 MOL     -0.104887
    115 H51         3.0370   -2.4460    4.2010 hc        1 MOL      0.108745
    116 H52         3.3740   -2.6640    2.5410 hc        1 MOL      0.108745
    117 H53         2.6330   -1.1500    3.1180 hc        1 MOL      0.108745
    118 H54         1.4210   -1.4300    5.2840 hc        1 MOL      0.059808
    119 H55        -0.2760   -1.5960    5.7750 hc        1 MOL      0.059808
    120 H56         0.8040   -3.0190    5.6650 hc        1 MOL      0.059808
    121 N11         2.3520   -2.9420   -0.5230 n         1 MOL     -0.189779
    122 C40         3.4100   -3.5040   -1.4120 c3        1 MOL     -0.353227
    123 C41         4.7940   -3.5270   -0.7270 c         1 MOL      0.572014
    124 O16         5.0160   -2.8210    0.2630 o         1 MOL     -0.351075
    125 C42         3.3660   -2.7920   -2.8060 c3        1 MOL      0.079609
    126 O17         3.6530   -1.4250   -2.7010 oh        1 MOL     -0.612567
    127 H57         1.9240   -2.0340   -0.6720 hn        1 MOL      0.228446
    128 H58         3.1970   -4.5600   -1.6010 h1        1 MOL      0.137937
    129 H59         2.3850   -2.8430   -3.2690 h1        1 MOL      0.080449
    130 H60         4.0140   -3.3210   -3.5010 h1        1 MOL      0.080449
    131 H61         2.9460   -1.0110   -2.2190 ho        1 MOL      0.437652
    132 N12         5.8400   -4.1950   -1.2940 n         1 MOL     -0.476989
    133 C43         7.2530   -4.1570   -0.7900 c3        1 MOL      0.123169
    134 C44         7.8990   -2.7770   -0.9370 c         1 MOL      0.448455
    135 O18         8.6430   -2.3050   -0.0460 o         1 MOL     -0.505445
    136 C45         8.0570   -5.3030   -1.3430 c3        1 MOL     -0.275125
    137 H62         5.6790   -4.9350   -1.9640 hn        1 MOL      0.292791
    138 H63         7.2330   -4.3090    0.2920 h1        1 MOL      0.080947
    139 H64         9.0210   -5.4040   -0.8480 hc        1 MOL      0.087584
    140 H65         7.5340   -6.2650   -1.2930 hc        1 MOL      0.087584
    141 H66         8.2210   -4.9930   -2.3760 hc        1 MOL      0.087584
    142 N13         7.4300   -2.0060   -1.9190 n         1 MOL     -0.363097
    143 C46         7.8900   -0.6030   -2.1690 c3        1 MOL      0.141108
    144 C47         7.4070    0.4370   -1.1420 c         1 MOL      0.342500
    145 O19         8.2320    1.2730   -0.6640 o         1 MOL     -0.500518
    146 C48         7.3550   -0.1900   -3.5630 c3        1 MOL     -0.447272
    147 H67         6.8130   -2.4200   -2.6100 hn        1 MOL      0.282506
    148 H68         8.9770   -0.5900   -2.2770 h1        1 MOL      0.085300
    149 H69         7.3790    0.8940   -3.6480 hc        1 MOL      0.118429
    150 H70         7.8100   -0.7660   -4.3650 hc        1 MOL      0.118429
    151 H71         6.3250   -0.4710   -3.7660 hc        1 MOL      0.118429
    152 N14         6.1390    0.2590   -0.7730 n         1 MOL     -0.031789
    153 C49         5.4640    0.9160    0.3760 c3        1 MOL     -0.351962
    154 C50         6.0930    0.3970    1.7020 c         1 MOL      0.541035
    155 O20         6.2090    1.1700    2.6780 o         1 MOL     -0.547104
    156 C51         3.9980    0.5720    0.3800 c3        1 MOL      0.200721
    157 C52         3.3040    1.4370   -0.6650 c3        1 MOL      0.098603
    158 C53         1.9130    0.9900   -0.9170 c         1 MOL      0.523738
    159 O21         1.6690   -0.2150   -1.2260 o         1 MOL     -0.671438
    160 O22         0.9880    1.8200   -0.5700 o         1 MOL     -0.671438
    161 H72         5.7110   -0.4210   -1.3830 hn        1 MOL      0.080785
    162 H73         5.5750    2.0030    0.3830 h1        1 MOL      0.138278
    163 H74         3.6600    0.7180    1.4020 hc        1 MOL      0.004096
    164 H75         3.9250   -0.4880    0.1190 hc        1 MOL      0.004096
    165 H76         3.8180    1.3910   -1.6260 hc        1 MOL     -0.041294
    166 H77         3.3470    2.5000   -0.4330 hc        1 MOL     -0.041294
    167 N15         6.3330   -0.9250    1.7970 n         1 MOL     -0.113048
    168 C54         6.8290   -1.5600    3.0070 c3        1 MOL     -0.229087
    169 H78         6.0860   -2.2660    3.3770 h1        1 MOL      0.094330
    170 H79         7.7550   -2.0910    2.7860 h1        1 MOL      0.094330
    171 H80         7.0190   -0.8000    3.7650 h1        1 MOL      0.094330
    172 H81         6.0780   -1.5930    1.0730 hn        1 MOL      0.114631
    173 Ca1        -1.1490    0.3890   -1.3340 Ca        1 MOL      1.826099
    174 O23         0.0880    1.1750   -3.4610 oh        1 MOL     -0.882217
    175 H82        -0.3550    2.0100   -3.6410 ho        1 MOL      0.416846
    176 H83         0.7630    1.1110   -4.1260 ho        1 MOL      0.416846
    177 O24        -0.8750   -1.8580   -2.8820 oh        1 MOL     -0.882217
    178 H84        -1.0110   -2.7980   -2.8410 ho        1 MOL      0.416846
    179 H85        -0.6180   -1.6880   -3.7930 ho        1 MOL      0.416846
@<TRIPOS>BOND
     1    1    2 1   
     2    1    4 1   
     3    1    5 1   
     4    1    6 1   
     5    2    3 2   
     6    2    7 1   
     7    7    8 1   
     8    7   15 1   
     9    8    9 1   
    10    8   11 1   
    11    8   16 1   
    12    9   10 2   
    13    9   19 1   
    14   11   12 1   
    15   11   17 1   
    16   11   18 1   
    17   12   13 1   
    18   12   14 1   
    19   19   20 1   
    20   19   28 1   
    21   20   21 1   
    22   20   23 1   
    23   20   29 1   
    24   21   22 2   
    25   21   41 1   
    26   23   24 1   
    27   23   30 1   
    28   23   31 1   
    29   24   25 1   
    30   24   32 1   
    31   24   33 1   
    32   25   26 1   
    33   25   34 1   
    34   25   35 1   
    35   26   27 1   
    36   26   36 1   
    37   26   37 1   
    38   27   38 1   
    39   27   39 1   
    40   27   40 1   
    41   41   42 1   
    42   41   49 1   
    43   42   43 1   
    44   42   45 1   
    45   42   50 1   
    46   43   44 2   
    47   43   53 1   
    48   45   46 1   
    49   45   51 1   
    50   45   52 1   
    51   46   47 1   
    52   46   48 1   
    53   53   54 1   
    54   53   57 1   
    55   54   55 1   
    56   54   58 1   
    57   54   59 1   
    58   55   56 2   
    59   55   60 1   
    60   60   61 1   
    61   60   68 1   
    62   61   62 1   
    63   61   64 1   
    64   61   69 1   
    65   62   63 2   
    66   62   74 1   
    67   64   65 1   
    68   64   70 1   
    69   64   71 1   
    70   65   66 1   
    71   65   67 2   
    72   66   72 1   
    73   66   73 1   
    74   74   75 1   
    75   74   78 1   
    76   75   76 1   
    77   75   79 1   
    78   75   80 1   
    79   76   77 2   
    80   76   81 1   
    81   81   82 1   
    82   81   93 1   
    83   82   83 1   
    84   82   85 1   
    85   82   94 1   
    86   83   84 2   
    87   83  102 1   
    88   85   86 1   
    89   85   95 1   
    90   85   96 1   
    91   86   87 ar  
    92   86   88 ar  
    93   87   89 ar  
    94   87   97 1   
    95   88   90 ar  
    96   88   98 1   
    97   89   91 ar  
    98   89   99 1   
    99   90   91 ar  
   100   90  100 1   
   101   91   92 1   
   102   92  101 1   
   103  102  103 1   
   104  102  110 1   
   105  103  104 1   
   106  103  106 1   
   107  103  111 1   
   108  104  105 2   
   109  104  121 1   
   110  106  107 1   
   111  106  108 1   
   112  106  112 1   
   113  107  109 1   
   114  107  113 1   
   115  107  114 1   
   116  108  115 1   
   117  108  116 1   
   118  108  117 1   
   119  109  118 1   
   120  109  119 1   
   121  109  120 1   
   122  121  122 1   
   123  121  127 1   
   124  122  123 1   
   125  122  125 1   
   126  122  128 1   
   127  123  124 2   
   128  123  132 1   
   129  125  126 1   
   130  125  129 1   
   131  125  130 1   
   132  126  131 1   
   133  132  133 1   
   134  132  137 1   
   135  133  134 1   
   136  133  136 1   
   137  133  138 1   
   138  134  135 2   
   139  134  142 1   
   140  136  139 1   
   141  136  140 1   
   142  136  141 1   
   143  142  143 1   
   144  142  147 1   
   145  143  144 1   
   146  143  146 1   
   147  143  148 1   
   148  144  145 2   
   149  144  152 1   
   150  146  149 1   
   151  146  150 1   
   152  146  151 1   
   153  152  153 1   
   154  152  161 1   
   155  153  154 1   
   156  153  156 1   
   157  153  162 1   
   158  154  155 2   
   159  154  167 1   
   160  156  157 1   
   161  156  163 1   
   162  156  164 1   
   163  157  158 1   
   164  157  165 1   
   165  157  166 1   
   166  158  159 1   
   167  158  160 1   
   168  167  168 1   
   169  167  172 1   
   170  168  169 1   
   171  168  170 1   
   172  168  171 1   
   173  174  175 1   
   174  174  176 1   
   175  177  178 1   
   176  177  179 1   
@<TRIPOS>SUBSTRUCTURE
     1 MOL         1 TEMP              0 ****  ****    0 ROOT
