@<TRIPOS>MOLECULE
MOL
  172   171     1     0     0
SMALL
resp


@<TRIPOS>ATOM
      1 C1          0.4760   -0.9960    6.3770 c3        1 MOL     -0.333686
      2 C2          0.8520   -1.3510    4.9500 c         1 MOL      0.819469
      3 O1          0.0980   -2.0550    4.2980 o         1 MOL     -0.605090
      4 H1          1.3460   -1.1150    7.0220 hc        1 MOL      0.075413
      5 H2          0.1330    0.0390    6.4170 hc        1 MOL      0.075413
      6 H3         -0.3210   -1.6560    6.7190 hc        1 MOL      0.075413
      7 N1          2.0350   -0.9570    4.4570 n         1 MOL     -0.702436
      8 C3          2.4610   -1.3190    3.0590 c3        1 MOL      0.132237
      9 C4          2.8060   -2.8160    2.8250 c         1 MOL      0.663613
     10 O2          3.5480   -3.4380    3.5440 o         1 MOL     -0.613061
     11 C5          3.6880   -0.4560    2.8070 c3        1 MOL     -0.265532
     12 C6          4.3070   -0.6420    1.4340 c         1 MOL      0.613785
     13 O3          3.6460   -0.6620    0.3760 o         1 MOL     -0.571559
     14 O4          5.5510   -0.7460    1.4260 o         1 MOL     -0.571559
     15 H4          2.7000   -0.4170    5.0000 hn        1 MOL      0.333266
     16 H5          1.6390   -1.1030    2.3740 h1        1 MOL      0.066950
     17 H6          4.4720   -0.7860    3.4860 hc        1 MOL      0.071170
     18 H7          3.4160    0.5880    2.9340 hc        1 MOL      0.071170
     19 N2          2.2960   -3.3100    1.7210 n         1 MOL     -0.331803
     20 C7          2.3940   -4.7120    1.3450 c3        1 MOL      0.050904
     21 C8          2.8520   -5.0350   -0.0310 c         1 MOL      0.512852
     22 O5          2.8400   -6.2210   -0.3960 o         1 MOL     -0.560870
     23 C9          1.0180   -5.3090    1.6070 c3        1 MOL     -0.174106
     24 H8          1.7680   -2.7000    1.1180 hn        1 MOL      0.170327
     25 H9          3.0820   -5.2400    2.0030 h1        1 MOL      0.066685
     26 H10         0.2920   -4.9650    0.8650 hc        1 MOL      0.050308
     27 H11         1.0100   -6.4040    1.5130 hc        1 MOL      0.050308
     28 H12         0.6630   -5.0150    2.5950 hc        1 MOL      0.050308
     29 N3          3.4270   -4.0770   -0.7820 n         1 MOL     -0.455362
     30 C10         4.1750   -4.3450   -2.0140 c3        1 MOL      0.230202
     31 C11         5.6130   -3.8610   -1.8640 c         1 MOL      0.267055
     32 O6          6.4650   -4.4200   -2.5650 o         1 MOL     -0.531705
     33 C12         3.6000   -3.7710   -3.2660 c3        1 MOL     -0.044718
     34 C13         3.0650   -2.3690   -2.9980 c         1 MOL      0.704317
     35 O7          1.8760   -2.0540   -3.1550 o         1 MOL     -0.769490
     36 O8          3.7990   -1.4530   -2.4830 o         1 MOL     -0.769490
     37 H13         3.3390   -3.1130   -0.4950 hn        1 MOL      0.287678
     38 H14         4.2510   -5.4220   -2.1870 h1        1 MOL      0.033791
     39 H15         2.8300   -4.4600   -3.6280 hc        1 MOL      0.006782
     40 H16         4.3450   -3.7460   -4.0540 hc        1 MOL      0.006782
     41 N4          5.9350   -2.9140   -0.9730 n         1 MOL      0.000858
     42 C14         7.3240   -2.4670   -0.8190 c3        1 MOL      0.014898
     43 C15         7.5690   -1.0730   -1.4180 c         1 MOL      0.542617
     44 O9          8.5530   -0.8470   -2.1640 o         1 MOL     -0.592512
     45 H17         5.3560   -2.5990   -0.2110 hn        1 MOL      0.059342
     46 H18         8.0280   -3.1750   -1.2450 h1        1 MOL      0.017243
     47 H19         7.5250   -2.4230    0.2570 h1        1 MOL      0.017243
     48 N5          6.6700   -0.0830   -1.1880 n         1 MOL     -0.281922
     49 C16         6.9640    1.3200   -1.5660 c3        1 MOL      0.010625
     50 C17         6.6910    2.3770   -0.4900 c         1 MOL      0.432012
     51 O10         6.8350    3.5640   -0.7440 o         1 MOL     -0.537309
     52 C18         6.2040    1.6690   -2.9810 c3        1 MOL     -0.126524
     53 C19         4.7270    1.8980   -2.7540 c         1 MOL      0.480086
     54 N6          3.9710    2.4230   -3.7220 n         1 MOL     -0.761146
     55 O11         4.0820    1.5860   -1.7800 o         1 MOL     -0.324121
     56 H20         5.9190   -0.3090   -0.5380 hn        1 MOL      0.121983
     57 H21         8.0350    1.2700   -1.7840 h1        1 MOL      0.082053
     58 H22         6.3070    0.9800   -3.8200 hc        1 MOL      0.064745
     59 H23         6.5820    2.6480   -3.2730 hc        1 MOL      0.064745
     60 H24         4.5350    2.9220   -4.3940 hn        1 MOL      0.328620
     61 H25         3.0300    2.7080   -3.4820 hn        1 MOL      0.328620
     62 N7          6.2570    1.9330    0.6890 n         1 MOL     -0.154819
     63 C20         6.0660    2.7470    1.9440 c3        1 MOL     -0.169512
     64 C21         4.9670    3.7890    1.8430 c         1 MOL      0.522571
     65 O12         5.0570    4.7640    2.6050 o         1 MOL     -0.563624
     66 H26         6.0660    0.9570    0.8740 hn        1 MOL      0.100523
     67 H27         7.0210    3.2200    2.1730 h1        1 MOL      0.102510
     68 H28         5.6770    2.0820    2.7170 h1        1 MOL      0.102510
     69 N8          3.9700    3.5360    0.9480 n         1 MOL     -0.237279
     70 C22         2.7200    4.3220    0.8250 c3        1 MOL      0.032791
     71 C23         1.4710    3.3570    0.7550 c         1 MOL      0.635120
     72 O13         1.7140    2.1750    0.4990 o         1 MOL     -0.625675
     73 C24         2.7050    5.4250   -0.2930 c3        1 MOL      0.253791
     74 C25         4.0890    6.0010   -0.6550 c3        1 MOL     -0.278075
     75 O14         2.0940    5.0270   -1.5090 oh        1 MOL     -0.602622
     76 H29         3.9610    2.5940    0.5940 hn        1 MOL      0.156170
     77 H30         2.6730    4.8890    1.7600 h1        1 MOL      0.028777
     78 H31         2.0480    6.1990    0.0950 h1        1 MOL     -0.013989
     79 H32         2.1280    5.7810   -2.0960 ho        1 MOL      0.398977
     80 H33         4.0990    6.8190   -1.3690 hc        1 MOL      0.072498
     81 H34         4.4900    6.3650    0.2880 hc        1 MOL      0.072498
     82 H35         4.7990    5.2600   -1.0270 hc        1 MOL      0.072498
     83 N9          0.2250    3.8070    0.9670 n         1 MOL     -0.586411
     84 C26        -0.8890    2.9340    1.2640 c3        1 MOL      0.087157
     85 C27        -1.8780    2.9760    0.0860 c         1 MOL      0.485820
     86 O15        -2.4200    4.0270   -0.2480 o         1 MOL     -0.598422
     87 C28        -1.6340    3.4730    2.4820 c3        1 MOL      0.011510
     88 C29        -0.6860    3.3590    3.6540 c3        1 MOL      0.120745
     89 C30        -3.0100    2.7660    2.7820 c3        1 MOL     -0.020542
     90 C31        -1.1810    4.0340    4.9170 c3        1 MOL     -0.098175
     91 H36         0.2070    4.7750    1.2380 hn        1 MOL      0.312895
     92 H37        -0.5990    1.9010    1.4190 h1        1 MOL      0.107634
     93 H38        -1.9180    4.4870    2.1850 hc        1 MOL     -0.000393
     94 H39         0.2800    3.7810    3.3650 hc        1 MOL     -0.012940
     95 H40        -0.4700    2.3270    3.9310 hc        1 MOL     -0.012940
     96 H41        -3.6860    3.4480    3.2910 hc        1 MOL      0.000493
     97 H42        -3.5780    2.5610    1.8720 hc        1 MOL      0.000493
     98 H43        -2.8650    1.8280    3.3180 hc        1 MOL      0.000493
     99 H44        -0.3990    3.9130    5.6640 hc        1 MOL      0.003775
    100 H45        -1.1080    5.1090    4.7080 hc        1 MOL      0.003775
    101 H46        -2.1330    3.6690    5.2780 hc        1 MOL      0.003775
    102 N10        -2.1410    1.8620   -0.5410 n         1 MOL     -0.113205
    103 C32        -3.0960    1.5830   -1.6410 c3        1 MOL      0.070733
    104 C33        -4.4880    1.1250   -1.0920 c         1 MOL      0.382073
    105 O16        -4.5200    0.6030    0.0490 o         1 MOL     -0.333797
    106 C34        -2.6050    0.6360   -2.7220 c3        1 MOL     -0.191234
    107 C35        -1.1630    0.9500   -3.2400 c         1 MOL      0.681538
    108 O17        -1.0340    2.0140   -3.8540 o         1 MOL     -0.657882
    109 O18        -0.2380    0.1840   -2.8480 o         1 MOL     -0.657882
    110 H47        -1.5520    1.1240   -0.1800 hn        1 MOL      0.107078
    111 H48        -3.2880    2.5640   -2.0820 h1        1 MOL      0.025724
    112 H49        -3.3240    0.6430   -3.5400 hc        1 MOL      0.032244
    113 H50        -2.6840   -0.3640   -2.2950 hc        1 MOL      0.032244
    114 N11        -5.5400    1.2130   -1.8250 n         1 MOL     -0.509177
    115 C36        -6.8190    0.8130   -1.3740 c3        1 MOL      0.236160
    116 C37        -6.9040   -0.5950   -0.7110 c         1 MOL      0.256288
    117 O19        -7.5020   -0.8010    0.3700 o         1 MOL     -0.462618
    118 C38        -7.7780    1.0340   -2.4780 c3        1 MOL     -0.030728
    119 C39        -9.2130    1.2090   -2.0730 ca        1 MOL      0.120683
    120 C40        -9.6210    2.1460   -1.0140 ca        1 MOL     -0.231826
    121 C41       -10.2100    0.4460   -2.7560 ca        1 MOL     -0.231826
    122 C42       -10.9730    2.1880   -0.6260 ca        1 MOL     -0.054069
    123 C43       -11.5440    0.5390   -2.3080 ca        1 MOL     -0.054069
    124 C44       -11.9110    1.4230   -1.2700 ca        1 MOL     -0.154419
    125 H51        -5.3920    1.4460   -2.8060 hn        1 MOL      0.316620
    126 H52        -7.0450    1.5640   -0.6190 h1        1 MOL      0.086002
    127 H53        -7.6110    0.3250   -3.2940 hc        1 MOL      0.018370
    128 H54        -7.5610    1.9860   -2.9790 hc        1 MOL      0.018370
    129 H55        -8.8870    2.7590   -0.5030 ha        1 MOL      0.132500
    130 H56        -9.9140   -0.1370   -3.6160 ha        1 MOL      0.132500
    131 H57       -11.2780    2.9030    0.1290 ha        1 MOL      0.101344
    132 H58       -12.2680   -0.1520   -2.7240 ha        1 MOL      0.101344
    133 H59       -12.9500    1.4020   -0.9910 ha        1 MOL      0.101425
    134 N12        -6.2790   -1.6830   -1.3180 n         1 MOL     -0.065022
    135 C45        -6.2330   -3.0230   -0.7330 c3        1 MOL      0.037103
    136 C46        -5.5210   -3.0510    0.6390 c         1 MOL      0.396438
    137 O20        -5.9130   -3.7960    1.5100 o         1 MOL     -0.515667
    138 C47        -5.5340   -3.9190   -1.7460 c3        1 MOL     -0.287969
    139 C48        -4.6830   -2.9610   -2.5940 c3        1 MOL      0.056626
    140 C49        -5.5000   -1.6900   -2.5830 c3        1 MOL     -0.155909
    141 H60        -7.2620   -3.3430   -0.5750 h1        1 MOL      0.065706
    142 H61        -4.8560   -4.6310   -1.2750 hc        1 MOL      0.106392
    143 H62        -6.2900   -4.2900   -2.4300 hc        1 MOL      0.106392
    144 H63        -3.7170   -2.8440   -2.1000 hc        1 MOL      0.032277
    145 H64        -4.5920   -3.3900   -3.5930 hc        1 MOL      0.032277
    146 H65        -4.9550   -0.7730   -2.7910 h1        1 MOL      0.066955
    147 H66        -6.1910   -1.7510   -3.4230 h1        1 MOL      0.066955
    148 N13        -4.4690   -2.2700    0.7560 n         1 MOL     -0.126619
    149 C50        -3.6900   -2.2380    2.0200 c3        1 MOL     -0.154113
    150 C51        -4.4080   -1.6000    3.1800 c         1 MOL      0.456526
    151 O21        -4.4950   -2.0140    4.2960 o         1 MOL     -0.557917
    152 C52        -2.3550   -1.5050    1.7670 c3        1 MOL      0.188375
    153 C53        -1.6800   -2.1170    0.4860 c3        1 MOL      0.025299
    154 C54        -0.3520   -1.3360    0.2760 c         1 MOL      0.578448
    155 O22        -0.2310   -0.0730    0.2340 o         1 MOL     -0.677738
    156 O23         0.6720   -1.9760   -0.0630 o         1 MOL     -0.677738
    157 H67        -4.2590   -1.6010    0.0250 hn        1 MOL      0.154768
    158 H68        -3.4580   -3.2440    2.3740 h1        1 MOL      0.100337
    159 H69        -1.7380   -1.6360    2.6550 hc        1 MOL     -0.037360
    160 H70        -2.5710   -0.4470    1.6940 hc        1 MOL     -0.037360
    161 H71        -2.2070   -2.0030   -0.4580 hc        1 MOL      0.006491
    162 H72        -1.5910   -3.1790    0.7020 hc        1 MOL      0.006491
    163 N14        -5.1420   -0.5730    2.8230 n         1 MOL      0.075300
    164 C55        -6.0550    0.2510    3.6390 c3        1 MOL     -0.319920
    165 H73        -5.5750    0.4950    4.5860 h1        1 MOL      0.103003
    166 H74        -6.2910    1.1720    3.1040 h1        1 MOL      0.103003
    167 H75        -6.9740   -0.3040    3.8290 h1        1 MOL      0.103003
    168 H76        -5.1480   -0.3320    1.8380 hn        1 MOL     -0.020743
    169 Ca1         1.8430   -0.0260   -1.4260 Ca        1 MOL      1.679912
    170 O24         1.3090    2.4510   -2.6020 oh        1 MOL     -0.753784
    171 H77         0.4360    2.2730   -2.9520 ho        1 MOL      0.363504
    172 H78         1.2420    3.3280   -2.2130 ho        1 MOL      0.363504
@<TRIPOS>BOND
     1    1    2 1   
     2    1    4 1   
     3    1    5 1   
     4    1    6 1   
     5    2    3 2   
     6    2    7 1   
     7    7    8 1   
     8    7   15 1   
     9    8    9 1   
    10    8   11 1   
    11    8   16 1   
    12    9   10 2   
    13    9   19 1   
    14   11   12 1   
    15   11   17 1   
    16   11   18 1   
    17   12   13 1   
    18   12   14 1   
    19   19   20 1   
    20   19   24 1   
    21   20   21 1   
    22   20   23 1   
    23   20   25 1   
    24   21   22 2   
    25   21   29 1   
    26   23   26 1   
    27   23   27 1   
    28   23   28 1   
    29   29   30 1   
    30   29   37 1   
    31   30   31 1   
    32   30   33 1   
    33   30   38 1   
    34   31   32 2   
    35   31   41 1   
    36   33   34 1   
    37   33   39 1   
    38   33   40 1   
    39   34   35 1   
    40   34   36 1   
    41   41   42 1   
    42   41   45 1   
    43   42   43 1   
    44   42   46 1   
    45   42   47 1   
    46   43   44 2   
    47   43   48 1   
    48   48   49 1   
    49   48   56 1   
    50   49   50 1   
    51   49   52 1   
    52   49   57 1   
    53   50   51 2   
    54   50   62 1   
    55   52   53 1   
    56   52   58 1   
    57   52   59 1   
    58   53   54 1   
    59   53   55 2   
    60   54   60 1   
    61   54   61 1   
    62   62   63 1   
    63   62   66 1   
    64   63   64 1   
    65   63   67 1   
    66   63   68 1   
    67   64   65 2   
    68   64   69 1   
    69   69   70 1   
    70   69   76 1   
    71   70   71 1   
    72   70   73 1   
    73   70   77 1   
    74   71   72 2   
    75   71   83 1   
    76   73   74 1   
    77   73   75 1   
    78   73   78 1   
    79   74   80 1   
    80   74   81 1   
    81   74   82 1   
    82   75   79 1   
    83   83   84 1   
    84   83   91 1   
    85   84   85 1   
    86   84   87 1   
    87   84   92 1   
    88   85   86 2   
    89   85  102 1   
    90   87   88 1   
    91   87   89 1   
    92   87   93 1   
    93   88   90 1   
    94   88   94 1   
    95   88   95 1   
    96   89   96 1   
    97   89   97 1   
    98   89   98 1   
    99   90   99 1   
   100   90  100 1   
   101   90  101 1   
   102  102  103 1   
   103  102  110 1   
   104  103  104 1   
   105  103  106 1   
   106  103  111 1   
   107  104  105 2   
   108  104  114 1   
   109  106  107 1   
   110  106  112 1   
   111  106  113 1   
   112  107  108 1   
   113  107  109 1   
   114  114  115 1   
   115  114  125 1   
   116  115  116 1   
   117  115  118 1   
   118  115  126 1   
   119  116  117 2   
   120  116  134 1   
   121  118  119 1   
   122  118  127 1   
   123  118  128 1   
   124  119  120 ar  
   125  119  121 ar  
   126  120  122 ar  
   127  120  129 1   
   128  121  123 ar  
   129  121  130 1   
   130  122  124 ar  
   131  122  131 1   
   132  123  124 ar  
   133  123  132 1   
   134  124  133 1   
   135  134  135 1   
   136  134  140 1   
   137  135  136 1   
   138  135  138 1   
   139  135  141 1   
   140  136  137 2   
   141  136  148 1   
   142  138  139 1   
   143  138  142 1   
   144  138  143 1   
   145  139  140 1   
   146  139  144 1   
   147  139  145 1   
   148  140  146 1   
   149  140  147 1   
   150  148  149 1   
   151  148  157 1   
   152  149  150 1   
   153  149  152 1   
   154  149  158 1   
   155  150  151 2   
   156  150  163 1   
   157  152  153 1   
   158  152  159 1   
   159  152  160 1   
   160  153  154 1   
   161  153  161 1   
   162  153  162 1   
   163  154  155 1   
   164  154  156 1   
   165  163  164 1   
   166  163  168 1   
   167  164  165 1   
   168  164  166 1   
   169  164  167 1   
   170  170  171 1   
   171  170  172 1   
@<TRIPOS>SUBSTRUCTURE
     1 MOL         1 TEMP              0 ****  ****    0 ROOT
