@<TRIPOS>MOLECULE
MOL
  179   176     1     0     0
SMALL
resp


@<TRIPOS>ATOM
      1 C1          1.8400    4.0010    4.2990 c3        1 MOL     -0.374238
      2 C2          0.8860    3.6020    3.1010 c         1 MOL      0.473482
      3 O1          1.4640    3.6820    1.9490 o         1 MOL     -0.524136
      4 H1          2.8570    3.6790    4.0750 hc        1 MOL      0.103365
      5 H2          1.8230    5.0820    4.4340 hc        1 MOL      0.103365
      6 H3          1.4990    3.5150    5.2130 hc        1 MOL      0.103365
      7 N1         -0.3410    3.1450    3.3600 n         1 MOL     -0.494212
      8 C3         -1.2420    2.7900    2.2610 c3        1 MOL      0.176183
      9 C4         -1.8670    3.9710    1.5840 c         1 MOL      0.438967
     10 O2         -3.0490    4.2620    1.7600 o         1 MOL     -0.505370
     11 C5         -2.3700    1.8230    2.6850 c3        1 MOL     -0.085464
     12 C6         -3.0900    1.2320    1.5150 c         1 MOL      0.942736
     13 O3         -4.1290    0.5470    1.6620 o         1 MOL     -0.795991
     14 O4         -2.6630    1.4410    0.3320 o         1 MOL     -0.795991
     15 H4         -0.7060    3.2630    4.2950 hn        1 MOL      0.332274
     16 H5         -0.5780    2.3480    1.5210 h1        1 MOL     -0.049288
     17 H6         -3.0660    2.3290    3.3570 hc        1 MOL      0.021767
     18 H7         -2.0250    0.9600    3.2550 hc        1 MOL      0.021767
     19 N2         -1.1600    4.6360    0.6600 n         1 MOL     -0.312412
     20 C7         -1.5240    5.9310    0.0160 c3        1 MOL     -0.103349
     21 C8         -2.7080    5.8530   -1.0090 c         1 MOL      0.510559
     22 O5         -3.1400    6.8600   -1.6500 o         1 MOL     -0.574294
     23 C9         -0.3010    6.7620   -0.3880 c3        1 MOL      0.031379
     24 C10         0.5480    7.2920    0.7680 c3        1 MOL      0.063127
     25 C11         1.6010    8.2340    0.1960 c3        1 MOL     -0.015430
     26 C12         2.6070    8.8130    1.2260 c3        1 MOL     -0.017595
     27 N3          3.0770    7.8390    2.2220 n4        1 MOL     -0.347184
     28 H8         -0.2930    4.2110    0.3680 hn        1 MOL      0.296292
     29 H9         -1.9350    6.5160    0.8360 h1        1 MOL      0.102515
     30 H10        -0.5150    7.5680   -1.0860 hc        1 MOL      0.026128
     31 H11         0.3720    6.1190   -0.9530 hc        1 MOL      0.026128
     32 H12         1.0420    6.4340    1.2160 hc        1 MOL     -0.028995
     33 H13        -0.0870    7.8000    1.4950 hc        1 MOL     -0.028995
     34 H14         1.0380    9.0090   -0.3190 hc        1 MOL      0.048028
     35 H15         2.0700    7.7180   -0.6410 hc        1 MOL      0.048028
     36 H16         2.0620    9.5470    1.8180 hx        1 MOL      0.085313
     37 H17         3.3660    9.3860    0.6780 hx        1 MOL      0.085313
     38 H18         3.3670    6.9940    1.7420 hn        1 MOL      0.337197
     39 H19         3.8620    8.2280    2.7310 hn        1 MOL      0.337197
     40 H20         2.2950    7.6330    2.8270 hn        1 MOL      0.337197
     41 N4         -3.3000    4.6860   -1.1600 n         1 MOL     -0.337103
     42 C13        -4.3890    4.4080   -2.1470 c3        1 MOL      0.318853
     43 C14        -5.5230    3.7010   -1.4910 c         1 MOL      0.196163
     44 O6         -6.6410    3.8050   -1.9770 o         1 MOL     -0.509290
     45 C15        -4.0160    3.5750   -3.3130 c3        1 MOL     -0.445266
     46 C16        -3.2500    2.2700   -2.8760 c         1 MOL      0.891143
     47 O7         -2.0610    2.3180   -2.4870 o         1 MOL     -0.828661
     48 O8         -3.7940    1.1820   -2.7160 o         1 MOL     -0.828661
     49 H21        -2.7070    3.9220   -0.8680 hn        1 MOL      0.218680
     50 H22        -4.7750    5.3580   -2.5100 h1        1 MOL      0.071395
     51 H23        -3.2900    4.1740   -3.8610 hc        1 MOL      0.114764
     52 H24        -4.9020    3.3290   -3.8950 hc        1 MOL      0.114764
     53 N5         -5.3410    2.9940   -0.3890 n         1 MOL      0.199979
     54 C17        -6.3650    2.4350    0.4780 c3        1 MOL     -0.211977
     55 C18        -7.0520    1.1910   -0.0360 c         1 MOL      0.467370
     56 O9         -8.2630    0.9080    0.2650 o         1 MOL     -0.577709
     57 H25        -4.4340    3.0160    0.0420 hn        1 MOL     -0.066045
     58 H26        -7.1480    3.1790    0.5900 h1        1 MOL      0.101342
     59 H27        -5.9010    2.1220    1.4140 h1        1 MOL      0.101342
     60 N6         -6.3450    0.3240   -0.7170 n         1 MOL     -0.119128
     61 C19        -6.7950   -1.0030   -1.1550 c3        1 MOL     -0.204763
     62 C20        -6.5880   -2.1410   -0.1440 c         1 MOL      0.313729
     63 O10        -7.0010   -3.2660   -0.3430 o         1 MOL     -0.467999
     64 C21        -6.1210   -1.3030   -2.5330 c3        1 MOL     -0.179453
     65 C22        -4.6900   -1.8440   -2.4320 c         1 MOL      0.802409
     66 N7         -4.5000   -2.7090   -3.3980 n         1 MOL     -0.810982
     67 O11        -3.8810   -1.6000   -1.5460 o         1 MOL     -0.574114
     68 H28        -5.3830    0.5310   -0.9610 hn        1 MOL      0.146890
     69 H29        -7.8640   -0.8850   -1.3220 h1        1 MOL      0.174835
     70 H30        -6.1580   -0.5050   -3.2720 hc        1 MOL      0.086840
     71 H31        -6.7840   -2.0650   -2.9420 hc        1 MOL      0.086840
     72 H32        -5.2380   -3.0420   -3.9970 hn        1 MOL      0.364384
     73 H33        -3.6220   -3.2040   -3.3360 hn        1 MOL      0.364384
     74 N8         -5.9380   -1.8350    0.9660 n         1 MOL     -0.013524
     75 C23        -5.7190   -2.6730    2.1250 c3        1 MOL     -0.559782
     76 C24        -4.3160   -3.1970    2.3100 c         1 MOL      0.770557
     77 O12        -4.0900   -4.1170    3.1400 o         1 MOL     -0.589316
     78 H34        -5.4690   -0.9360    1.0220 hn        1 MOL      0.267798
     79 H35        -6.4240   -3.4930    2.0970 h1        1 MOL      0.210368
     80 H36        -5.9520   -1.9970    2.9410 h1        1 MOL      0.210368
     81 N9         -3.2800   -2.6420    1.6730 n         1 MOL     -0.509901
     82 C25        -1.9900   -3.2620    1.7010 c3        1 MOL      0.296187
     83 C26        -0.8100   -2.3030    1.4140 c         1 MOL      0.451973
     84 O13        -0.9710   -1.2150    0.8560 o         1 MOL     -0.544602
     85 C27        -1.9910   -4.4720    0.7390 c3        1 MOL      0.090490
     86 C28        -3.0970   -5.5540    0.7590 ca        1 MOL     -0.199422
     87 C29        -4.2910   -5.3320   -0.0090 ca        1 MOL      0.050564
     88 C30        -2.8680   -6.7120    1.4990 ca        1 MOL      0.050564
     89 C31        -5.2610   -6.3450    0.0740 ca        1 MOL     -0.430467
     90 C32        -3.7900   -7.7660    1.3810 ca        1 MOL     -0.430467
     91 C33        -5.0280   -7.5790    0.7420 ca        1 MOL      0.508405
     92 O14        -5.9660   -8.5370    0.7420 oh        1 MOL     -0.485391
     93 H37        -3.3720   -1.8700    1.0390 hn        1 MOL      0.162650
     94 H38        -1.7980   -3.6470    2.6980 h1        1 MOL     -0.006053
     95 H39        -1.0240   -4.9500    0.8500 hc        1 MOL     -0.038409
     96 H40        -2.0660   -4.0380   -0.2590 hc        1 MOL     -0.038409
     97 H41        -4.3450   -4.4990   -0.6950 ha        1 MOL      0.092500
     98 H42        -1.9240   -6.8710    1.9850 ha        1 MOL      0.092500
     99 H43        -6.1950   -6.2420   -0.4530 ha        1 MOL      0.161817
    100 H44        -3.6620   -8.7130    1.8930 ha        1 MOL      0.161817
    101 H45        -5.5270   -9.3780    0.8440 ho        1 MOL      0.337926
    102 N10         0.4140   -2.6970    1.8100 n         1 MOL     -0.415979
    103 C34         1.6720   -2.2260    1.2150 c3        1 MOL     -0.034581
    104 C35         2.5820   -3.3160    0.7030 c         1 MOL      0.522542
    105 O15         2.5560   -4.4000    1.2810 o         1 MOL     -0.548779
    106 C36         2.4740   -1.3250    2.1950 c3        1 MOL      0.174362
    107 C37         2.8770   -2.0560    3.4430 c3        1 MOL      0.086284
    108 C38         1.7670   -0.0300    2.4970 c3        1 MOL     -0.445647
    109 C39         3.4850   -1.2040    4.6140 c3        1 MOL     -0.247589
    110 H46         0.4150   -3.4520    2.4830 hn        1 MOL      0.283969
    111 H47         1.3470   -1.6320    0.3550 h1        1 MOL      0.016559
    112 H48         3.4680   -1.0750    1.7980 hc        1 MOL     -0.102261
    113 H49         3.5560   -2.8790    3.1840 hc        1 MOL      0.001798
    114 H50         1.9550   -2.4870    3.8300 hc        1 MOL      0.001798
    115 H51         1.3020    0.3080    1.5790 hc        1 MOL      0.147998
    116 H52         0.8640   -0.0550    3.1020 hc        1 MOL      0.147998
    117 H53         2.5720    0.6820    2.7180 hc        1 MOL      0.147998
    118 H54         3.5540   -1.9400    5.4030 hc        1 MOL      0.057488
    119 H55         4.4820   -0.8850    4.3320 hc        1 MOL      0.057488
    120 H56         2.8090   -0.3970    4.9070 hc        1 MOL      0.057488
    121 N11         3.3950   -3.0200   -0.2590 n         1 MOL     -0.404089
    122 C40         4.6180   -3.7130   -0.6300 c3        1 MOL      0.271817
    123 C41         5.9570   -3.1280   -0.1460 c         1 MOL      0.302329
    124 O16         5.9690   -2.0910    0.4600 o         1 MOL     -0.317112
    125 C42         4.5960   -3.8660   -2.1660 c3        1 MOL     -0.062141
    126 O17         5.0980   -2.6660   -2.7650 oh        1 MOL     -0.486578
    127 H57         3.2910   -2.1660   -0.7830 hn        1 MOL      0.233286
    128 H58         4.5150   -4.7530   -0.3040 h1        1 MOL      0.018012
    129 H59         3.5830   -4.1390   -2.4740 h1        1 MOL      0.073298
    130 H60         5.1710   -4.7190   -2.5380 h1        1 MOL      0.073298
    131 H61         5.0750   -2.6900   -3.7290 ho        1 MOL      0.395763
    132 N12         7.0850   -3.7660   -0.3800 n         1 MOL     -0.366168
    133 C43         8.4370   -3.2380   -0.0300 c3        1 MOL      0.112190
    134 C44         8.7130   -1.8470   -0.8000 c         1 MOL      0.461076
    135 O18         9.5230   -0.9840   -0.3610 o         1 MOL     -0.491641
    136 C45         9.5800   -4.2820   -0.1540 c3        1 MOL     -0.272644
    137 H62         7.1050   -4.6850   -0.8080 hn        1 MOL      0.258363
    138 H63         8.4750   -3.0170    1.0350 h1        1 MOL      0.073911
    139 H64         9.9410   -4.4440   -1.1770 hc        1 MOL      0.090819
    140 H65        10.5020   -3.8540    0.2360 hc        1 MOL      0.090819
    141 H66         9.3400   -5.2470    0.2860 hc        1 MOL      0.090819
    142 N13         8.0930   -1.7070   -2.0270 n         1 MOL     -0.393194
    143 C46         8.1600   -0.4250   -2.6950 c3        1 MOL      0.179085
    144 C47         7.4140    0.6920   -1.8700 c         1 MOL      0.305263
    145 O19         8.0120    1.7220   -1.5440 o         1 MOL     -0.482561
    146 C48         7.6810   -0.6240   -4.1120 c3        1 MOL     -0.155076
    147 H67         7.4790   -2.4620   -2.2910 hn        1 MOL      0.191434
    148 H68         9.1750   -0.0860   -2.8720 h1        1 MOL      0.074154
    149 H69         7.6880    0.2620   -4.7390 hc        1 MOL      0.040532
    150 H70         8.3410   -1.3620   -4.5840 hc        1 MOL      0.040532
    151 H71         6.6680   -1.0200   -4.1540 hc        1 MOL      0.040532
    152 N14         6.1440    0.4520   -1.4850 n         1 MOL     -0.172272
    153 C49         5.3010    1.3800   -0.6880 c3        1 MOL     -0.082846
    154 C50         5.9680    1.6000    0.7180 c         1 MOL      0.382762
    155 O20         5.7750    2.6970    1.2160 o         1 MOL     -0.564314
    156 C51         3.8610    0.8230   -0.4950 c3        1 MOL      0.027913
    157 C52         3.1240    1.0060   -1.8160 c3        1 MOL     -0.245231
    158 C53         1.7820    0.2500   -1.6670 c         1 MOL      0.830666
    159 O21         1.6770   -0.8440   -2.2440 o         1 MOL     -0.745500
    160 O22         0.7870    0.8480   -1.0650 o         1 MOL     -0.745500
    161 H72         5.6660   -0.3930   -1.7780 hn        1 MOL      0.154502
    162 H73         5.3860    2.3400   -1.1830 h1        1 MOL      0.117850
    163 H74         3.3080    1.3420    0.2910 hc        1 MOL      0.088347
    164 H75         4.0850   -0.2230   -0.3000 hc        1 MOL      0.088347
    165 H76         3.6890    0.5680   -2.6410 hc        1 MOL      0.036031
    166 H77         2.9180    2.0610   -1.9250 hc        1 MOL      0.036031
    167 N15         6.7400    0.6760    1.2800 n         1 MOL      0.027776
    168 C54         7.4580    0.8230    2.5620 c3        1 MOL     -0.208694
    169 H78         8.5150    0.6040    2.4120 h1        1 MOL      0.086826
    170 H79         7.3480    1.8440    2.9260 h1        1 MOL      0.086826
    171 H80         7.0440    0.1300    3.2930 h1        1 MOL      0.086826
    172 H81         6.7150   -0.2600    0.9060 hn        1 MOL      0.044521
    173 Ca1        -1.6380    0.0600   -1.5110 Ca        1 MOL      1.778774
    174 O23        -0.5920   -2.3940   -1.9900 oh        1 MOL     -0.873961
    175 H82         0.3160   -2.0900   -2.0420 ho        1 MOL      0.424699
    176 H83        -0.5270   -3.3520   -1.9370 ho        1 MOL      0.424699
    177 O24        -1.2890   -0.3280   -4.0370 oh        1 MOL     -0.873961
    178 H84        -1.8260   -0.6720   -4.7540 ho        1 MOL      0.424699
    179 H85        -0.5240    0.0480   -4.4730 ho        1 MOL      0.424699
@<TRIPOS>BOND
     1    1    2 1   
     2    1    4 1   
     3    1    5 1   
     4    1    6 1   
     5    2    3 2   
     6    2    7 1   
     7    7    8 1   
     8    7   15 1   
     9    8    9 1   
    10    8   11 1   
    11    8   16 1   
    12    9   10 2   
    13    9   19 1   
    14   11   12 1   
    15   11   17 1   
    16   11   18 1   
    17   12   13 1   
    18   12   14 1   
    19   19   20 1   
    20   19   28 1   
    21   20   21 1   
    22   20   23 1   
    23   20   29 1   
    24   21   22 2   
    25   21   41 1   
    26   23   24 1   
    27   23   30 1   
    28   23   31 1   
    29   24   25 1   
    30   24   32 1   
    31   24   33 1   
    32   25   26 1   
    33   25   34 1   
    34   25   35 1   
    35   26   27 1   
    36   26   36 1   
    37   26   37 1   
    38   27   38 1   
    39   27   39 1   
    40   27   40 1   
    41   41   42 1   
    42   41   49 1   
    43   42   43 1   
    44   42   45 1   
    45   42   50 1   
    46   43   44 2   
    47   43   53 1   
    48   45   46 1   
    49   45   51 1   
    50   45   52 1   
    51   46   47 1   
    52   46   48 1   
    53   53   54 1   
    54   53   57 1   
    55   54   55 1   
    56   54   58 1   
    57   54   59 1   
    58   55   56 2   
    59   55   60 1   
    60   60   61 1   
    61   60   68 1   
    62   61   62 1   
    63   61   64 1   
    64   61   69 1   
    65   62   63 2   
    66   62   74 1   
    67   64   65 1   
    68   64   70 1   
    69   64   71 1   
    70   65   66 1   
    71   65   67 2   
    72   66   72 1   
    73   66   73 1   
    74   74   75 1   
    75   74   78 1   
    76   75   76 1   
    77   75   79 1   
    78   75   80 1   
    79   76   77 2   
    80   76   81 1   
    81   81   82 1   
    82   81   93 1   
    83   82   83 1   
    84   82   85 1   
    85   82   94 1   
    86   83   84 2   
    87   83  102 1   
    88   85   86 1   
    89   85   95 1   
    90   85   96 1   
    91   86   87 ar  
    92   86   88 ar  
    93   87   89 ar  
    94   87   97 1   
    95   88   90 ar  
    96   88   98 1   
    97   89   91 ar  
    98   89   99 1   
    99   90   91 ar  
   100   90  100 1   
   101   91   92 1   
   102   92  101 1   
   103  102  103 1   
   104  102  110 1   
   105  103  104 1   
   106  103  106 1   
   107  103  111 1   
   108  104  105 2   
   109  104  121 1   
   110  106  107 1   
   111  106  108 1   
   112  106  112 1   
   113  107  109 1   
   114  107  113 1   
   115  107  114 1   
   116  108  115 1   
   117  108  116 1   
   118  108  117 1   
   119  109  118 1   
   120  109  119 1   
   121  109  120 1   
   122  121  122 1   
   123  121  127 1   
   124  122  123 1   
   125  122  125 1   
   126  122  128 1   
   127  123  124 2   
   128  123  132 1   
   129  125  126 1   
   130  125  129 1   
   131  125  130 1   
   132  126  131 1   
   133  132  133 1   
   134  132  137 1   
   135  133  134 1   
   136  133  136 1   
   137  133  138 1   
   138  134  135 2   
   139  134  142 1   
   140  136  139 1   
   141  136  140 1   
   142  136  141 1   
   143  142  143 1   
   144  142  147 1   
   145  143  144 1   
   146  143  146 1   
   147  143  148 1   
   148  144  145 2   
   149  144  152 1   
   150  146  149 1   
   151  146  150 1   
   152  146  151 1   
   153  152  153 1   
   154  152  161 1   
   155  153  154 1   
   156  153  156 1   
   157  153  162 1   
   158  154  155 2   
   159  154  167 1   
   160  156  157 1   
   161  156  163 1   
   162  156  164 1   
   163  157  158 1   
   164  157  165 1   
   165  157  166 1   
   166  158  159 1   
   167  158  160 1   
   168  167  168 1   
   169  167  172 1   
   170  168  169 1   
   171  168  170 1   
   172  168  171 1   
   173  174  175 1   
   174  174  176 1   
   175  177  178 1   
   176  177  179 1   
@<TRIPOS>SUBSTRUCTURE
     1 MOL         1 TEMP              0 ****  ****    0 ROOT
