@<TRIPOS>MOLECULE
MOL
  179   176     1     0     0
SMALL
resp


@<TRIPOS>ATOM
      1 C1         -0.0400    5.1530   -4.1600 c3        1 MOL     -0.280223
      2 C2          0.2410    4.3300   -2.9390 c         1 MOL      0.599670
      3 O1         -0.3050    4.6390   -1.8450 o         1 MOL     -0.577373
      4 H1         -0.3630    4.5010   -4.9710 hc        1 MOL      0.066703
      5 H2         -0.8260    5.8740   -3.9390 hc        1 MOL      0.066703
      6 H3          0.8650    5.6830   -4.4580 hc        1 MOL      0.066703
      7 N1          1.1910    3.4440   -3.0200 n         1 MOL     -0.407415
      8 C3          1.8280    2.7210   -1.9560 c3        1 MOL      0.338223
      9 C4          2.7630    3.6380   -1.1500 c         1 MOL      0.254735
     10 O2          3.9890    3.6150   -1.3800 o         1 MOL     -0.448422
     11 C5          2.5210    1.4590   -2.4340 c3        1 MOL     -0.461596
     12 C6          3.0190    0.6430   -1.2780 c         1 MOL      1.082726
     13 O3          2.6410    0.8860   -0.1510 o         1 MOL     -0.850185
     14 O4          3.6860   -0.3970   -1.4450 o         1 MOL     -0.850185
     15 H4          1.4750    3.2380   -3.9590 hn        1 MOL      0.269315
     16 H5          1.0120    2.3960   -1.3060 h1        1 MOL     -0.010107
     17 H6          3.3920    1.7060   -3.0370 hc        1 MOL      0.096225
     18 H7          1.8440    0.8200   -2.9960 hc        1 MOL      0.096225
     19 N2          2.1900    4.5960   -0.4230 n         1 MOL     -0.367380
     20 C7          3.0350    5.6440    0.1920 c3        1 MOL      0.113284
     21 C8          3.8120    5.2270    1.4940 c         1 MOL      0.546125
     22 O5          4.4090    6.0600    2.1370 o         1 MOL     -0.547589
     23 C9          2.1130    6.8290    0.4330 c3        1 MOL     -0.175791
     24 C10         1.8620    7.5000   -0.9910 c3        1 MOL      0.003869
     25 C11         1.1540    8.8030   -0.8600 c3        1 MOL     -0.080426
     26 C12         0.6450    9.5340   -2.1300 c3        1 MOL      0.140503
     27 N3          0.3090   11.0210   -1.7450 n4        1 MOL     -0.425295
     28 H8          1.2050    4.4890   -0.2280 hn        1 MOL      0.373573
     29 H9          3.8560    5.9880   -0.4320 h1        1 MOL      0.057893
     30 H10         2.6530    7.5550    1.0480 hc        1 MOL      0.068662
     31 H11         1.2060    6.4510    0.9110 hc        1 MOL      0.068662
     32 H12         1.2150    6.7950   -1.5080 hc        1 MOL      0.026213
     33 H13         2.7200    7.8100   -1.5870 hc        1 MOL      0.026213
     34 H14         1.7580    9.5370   -0.3280 hc        1 MOL      0.045116
     35 H15         0.1800    8.6520   -0.3790 hc        1 MOL      0.045116
     36 H16        -0.1620    9.0450   -2.6720 hx        1 MOL      0.066326
     37 H17         1.4810    9.5160   -2.8290 hx        1 MOL      0.066326
     38 H18        -0.2380   11.1320   -0.9050 hn        1 MOL      0.333491
     39 H19         1.0920   11.6460   -1.6010 hn        1 MOL      0.333491
     40 H20        -0.0300   11.4750   -2.5780 hn        1 MOL      0.333491
     41 N4          3.7860    3.8900    1.7760 n         1 MOL     -0.351359
     42 C13         4.6690    3.2540    2.7260 c3        1 MOL      0.125351
     43 C14         5.6050    2.1910    2.1000 c         1 MOL      0.290087
     44 O6          6.5030    1.6470    2.7850 o         1 MOL     -0.519207
     45 C15         3.9220    2.6250    3.8820 c3        1 MOL     -0.327493
     46 C16         2.8740    1.6810    3.2670 c         1 MOL      0.700944
     47 O7          3.1240    0.4270    3.1590 o         1 MOL     -0.689940
     48 O8          1.7760    2.1870    2.9400 o         1 MOL     -0.689940
     49 H21         3.0420    3.3700    1.3320 hn        1 MOL      0.183185
     50 H22         5.3450    4.0200    3.1170 h1        1 MOL      0.090370
     51 H23         3.3070    3.3830    4.3770 hc        1 MOL      0.095815
     52 H24         4.5840    2.1090    4.5830 hc        1 MOL      0.095815
     53 N5          5.5200    1.9840    0.7850 n         1 MOL      0.072863
     54 C17         6.4950    1.2690    0.0630 c3        1 MOL     -0.324350
     55 C18         6.7590   -0.1860    0.4290 c         1 MOL      0.528377
     56 O9          7.7080   -0.7110   -0.1290 o         1 MOL     -0.576476
     57 H25         4.8660    2.5110    0.2250 hn        1 MOL      0.028779
     58 H26         7.4080    1.8410    0.2280 h1        1 MOL      0.132769
     59 H27         6.2420    1.2790   -1.0020 h1        1 MOL      0.132769
     60 N6          5.9530   -0.8650    1.2070 n         1 MOL     -0.201221
     61 C19         6.0580   -2.2940    1.4770 c3        1 MOL     -0.061908
     62 C20         5.9050   -3.1540    0.1710 c         1 MOL      0.406333
     63 O10         6.2680   -4.3170    0.2680 o         1 MOL     -0.524195
     64 C21         5.0340   -2.7650    2.5080 c3        1 MOL      0.101012
     65 C22         3.5440   -2.7030    2.1380 c         1 MOL      0.379833
     66 N7          2.8150   -3.6280    2.6010 n         1 MOL     -0.555753
     67 O11         3.0860   -1.8310    1.4300 o         1 MOL     -0.494630
     68 H28         5.1290   -0.4210    1.6080 hn        1 MOL      0.206766
     69 H29         7.0500   -2.5090    1.8740 h1        1 MOL      0.099964
     70 H30         5.2260   -2.1380    3.3730 hc        1 MOL      0.013833
     71 H31         5.4160   -3.7200    2.8770 hc        1 MOL      0.013833
     72 H32         3.2560   -4.2120    3.2980 hn        1 MOL      0.296057
     73 H33         1.8250   -3.4410    2.5790 hn        1 MOL      0.296057
     74 N8          5.4420   -2.6680   -0.9440 n         1 MOL     -0.261031
     75 C23         5.1520   -3.4870   -2.1560 c3        1 MOL     -0.062516
     76 C24         3.6880   -3.6990   -2.4670 c         1 MOL      0.468329
     77 O12         3.3470   -4.3960   -3.3770 o         1 MOL     -0.544734
     78 H34         5.1230   -1.7150   -0.9760 hn        1 MOL      0.290775
     79 H35         5.6490   -4.4590   -2.1430 h1        1 MOL      0.108749
     80 H36         5.7130   -3.1700   -3.0280 h1        1 MOL      0.108749
     81 N9          2.7430   -3.2450   -1.5860 n         1 MOL     -0.229633
     82 C25         1.3420   -3.6720   -1.5330 c3        1 MOL     -0.040152
     83 C26         0.3880   -2.5410   -1.1680 c         1 MOL      0.633822
     84 O13         0.7560   -1.5530   -0.4950 o         1 MOL     -0.600549
     85 C27         1.3050   -4.8400   -0.5410 c3        1 MOL      0.263747
     86 C28         2.1740   -6.0030   -0.7860 ca        1 MOL     -0.266982
     87 C29         3.4720   -6.0300   -0.2480 ca        1 MOL      0.016218
     88 C30         1.7690   -7.0230   -1.6460 ca        1 MOL      0.016218
     89 C31         4.3490   -7.1050   -0.5120 ca        1 MOL     -0.321623
     90 C32         2.6150   -8.0940   -1.8800 ca        1 MOL     -0.321623
     91 C33         3.9670   -8.1280   -1.3720 ca        1 MOL      0.379951
     92 O14         4.8470   -9.1240   -1.7350 oh        1 MOL     -0.460516
     93 H37         3.0800   -2.5220   -0.9580 hn        1 MOL      0.174416
     94 H38         1.1350   -4.0700   -2.5300 h1        1 MOL      0.076379
     95 H39         0.2800   -5.1550   -0.3730 hc        1 MOL     -0.046503
     96 H40         1.4150   -4.4650    0.4810 hc        1 MOL     -0.046503
     97 H41         3.7080   -5.2720    0.4750 ha        1 MOL      0.079046
     98 H42         0.8040   -7.0920   -2.1350 ha        1 MOL      0.079046
     99 H43         5.3530   -7.0230   -0.1390 ha        1 MOL      0.144001
    100 H44         2.2050   -8.9210   -2.4440 ha        1 MOL      0.144001
    101 H45         4.3560   -9.6950   -2.3330 ho        1 MOL      0.333771
    102 N10        -0.8180   -2.6990   -1.7180 n         1 MOL     -0.615212
    103 C34        -2.0210   -1.7790   -1.5600 c3        1 MOL      0.362186
    104 C35        -3.2190   -2.5480   -0.9740 c         1 MOL      0.332514
    105 O15        -3.5680   -3.6020   -1.4790 o         1 MOL     -0.531021
    106 C36        -2.3950   -1.1000   -2.8720 c3        1 MOL     -0.082931
    107 C37        -1.6900    0.2980   -2.7720 c3        1 MOL      0.165227
    108 C38        -3.8910   -0.8870   -3.1420 c3        1 MOL     -0.120033
    109 C39        -1.5790    0.9100   -4.1350 c3        1 MOL     -0.059032
    110 H46        -0.9050   -3.4430   -2.4040 hn        1 MOL      0.307603
    111 H47        -1.7870   -0.9900   -0.8430 h1        1 MOL     -0.100908
    112 H48        -2.0330   -1.6080   -3.7670 hc        1 MOL      0.050755
    113 H49        -0.6570    0.1240   -2.4660 hc        1 MOL     -0.020474
    114 H50        -2.2360    0.9760   -2.1170 hc        1 MOL     -0.020474
    115 H51        -4.4470   -1.8070   -3.3470 hc        1 MOL      0.023809
    116 H52        -4.3420   -0.4290   -2.2550 hc        1 MOL      0.023809
    117 H53        -3.9770   -0.2660   -4.0340 hc        1 MOL      0.023809
    118 H54        -1.2750    0.2160   -4.9170 hc        1 MOL     -0.002780
    119 H55        -2.5170    1.4190   -4.3410 hc        1 MOL     -0.002780
    120 H56        -0.8090    1.6880   -4.0750 hc        1 MOL     -0.002780
    121 N11        -3.7110   -2.1190    0.1650 n         1 MOL     -0.119591
    122 C40        -4.7390   -2.8820    0.8710 c3        1 MOL      0.078418
    123 C41        -6.1350   -2.6300    0.3360 c         1 MOL      0.293637
    124 O16        -6.2890   -1.7490   -0.5510 o         1 MOL     -0.323470
    125 C42        -4.6860   -2.5550    2.3450 c3        1 MOL     -0.441256
    126 O17        -5.0690   -1.2130    2.5570 oh        1 MOL     -0.388296
    127 H57        -3.2110   -1.4020    0.6600 hn        1 MOL      0.224080
    128 H58        -4.5560   -3.9640    0.8700 h1        1 MOL      0.070521
    129 H59        -3.6540   -2.7280    2.6610 h1        1 MOL      0.178779
    130 H60        -5.3370   -3.2900    2.8270 h1        1 MOL      0.178779
    131 H61        -5.2200   -1.1810    3.5030 ho        1 MOL      0.380468
    132 N12        -7.2060   -3.2520    0.8070 n         1 MOL     -0.353494
    133 C43        -8.5480   -2.9430    0.2800 c3        1 MOL      0.222150
    134 C44        -8.8770   -1.5200    0.7090 c         1 MOL      0.298600
    135 O18        -9.6680   -0.8250   -0.0400 o         1 MOL     -0.502020
    136 C45        -9.5520   -4.0950    0.6610 c3        1 MOL     -0.293873
    137 H62        -7.1360   -4.0360    1.4280 hn        1 MOL      0.249901
    138 H63        -8.3760   -2.8940   -0.7970 h1        1 MOL      0.068015
    139 H64       -10.4460   -3.8060    0.1140 hc        1 MOL      0.095149
    140 H65        -9.2660   -5.0300    0.1770 hc        1 MOL      0.095149
    141 H66        -9.8110   -4.0070    1.7190 hc        1 MOL      0.095149
    142 N13        -8.2660   -0.9520    1.7890 n         1 MOL     -0.209203
    143 C46        -8.3740    0.4280    2.2160 c3        1 MOL      0.161409
    144 C47        -7.5260    1.3750    1.3780 c         1 MOL      0.263789
    145 O19        -8.0320    2.4710    1.0820 o         1 MOL     -0.476337
    146 C48        -8.0680    0.4600    3.6800 c3        1 MOL     -0.255748
    147 H67        -7.7670   -1.5600    2.4190 hn        1 MOL      0.160431
    148 H68        -9.4310    0.6470    2.0640 h1        1 MOL      0.078628
    149 H69        -8.3200    1.4530    4.0700 hc        1 MOL      0.069456
    150 H70        -8.7850   -0.2230    4.1210 hc        1 MOL      0.069456
    151 H71        -7.0530    0.1160    3.9000 hc        1 MOL      0.069456
    152 N14        -6.2770    0.9700    0.9660 n         1 MOL      0.036669
    153 C49        -5.3590    1.8710    0.2400 c3        1 MOL     -0.158526
    154 C50        -5.8570    2.0660   -1.1900 c         1 MOL      0.394468
    155 O20        -5.8070    3.1840   -1.6690 o         1 MOL     -0.541499
    156 C51        -3.9250    1.5290    0.3340 c3        1 MOL      0.149767
    157 C52        -3.1410    1.7860    1.6330 c3        1 MOL     -0.397820
    158 C53        -1.7780    1.1450    1.3420 c         1 MOL      0.894713
    159 O21        -0.8160    1.8060    0.9040 o         1 MOL     -0.794743
    160 O22        -1.6420   -0.0940    1.4680 o         1 MOL     -0.794743
    161 H72        -5.8350    0.1380    1.3270 hn        1 MOL      0.040182
    162 H73        -5.4730    2.8550    0.6820 h1        1 MOL      0.092058
    163 H74        -3.4350    2.1380   -0.4270 hc        1 MOL      0.058409
    164 H75        -3.7900    0.4940    0.0260 hc        1 MOL      0.058409
    165 H76        -3.6680    1.2190    2.4050 hc        1 MOL      0.078867
    166 H77        -3.0110    2.8600    1.7260 hc        1 MOL      0.078867
    167 N15        -6.3570    1.0060   -1.8460 n         1 MOL      0.084642
    168 C54        -6.9930    1.1810   -3.1070 c3        1 MOL     -0.406333
    169 H78        -6.7640    0.3310   -3.7500 h1        1 MOL      0.130658
    170 H79        -8.0720    1.2480   -2.9650 h1        1 MOL      0.130658
    171 H80        -6.6300    2.0960   -3.5740 h1        1 MOL      0.130658
    172 H81        -6.3590    0.1340   -1.3390 hn        1 MOL      0.038987
    173 Ca1         1.0560   -0.0520    1.6220 Ca        1 MOL      1.741786
    174 O23        -0.0470    0.0550    4.1140 oh        1 MOL     -0.793082
    175 H82         0.2470   -0.5750    4.7710 ho        1 MOL      0.394456
    176 H83        -0.9060    0.3430    4.4170 ho        1 MOL      0.394456
    177 O24        -0.1320   -2.3740    2.4430 oh        1 MOL     -0.793082
    178 H84        -0.6710   -3.0730    2.0570 ho        1 MOL      0.394456
    179 H85        -0.6940   -1.9870    3.1110 ho        1 MOL      0.394456
@<TRIPOS>BOND
     1    1    2 1   
     2    1    4 1   
     3    1    5 1   
     4    1    6 1   
     5    2    3 2   
     6    2    7 1   
     7    7    8 1   
     8    7   15 1   
     9    8    9 1   
    10    8   11 1   
    11    8   16 1   
    12    9   10 2   
    13    9   19 1   
    14   11   12 1   
    15   11   17 1   
    16   11   18 1   
    17   12   13 1   
    18   12   14 1   
    19   19   20 1   
    20   19   28 1   
    21   20   21 1   
    22   20   23 1   
    23   20   29 1   
    24   21   22 2   
    25   21   41 1   
    26   23   24 1   
    27   23   30 1   
    28   23   31 1   
    29   24   25 1   
    30   24   32 1   
    31   24   33 1   
    32   25   26 1   
    33   25   34 1   
    34   25   35 1   
    35   26   27 1   
    36   26   36 1   
    37   26   37 1   
    38   27   38 1   
    39   27   39 1   
    40   27   40 1   
    41   41   42 1   
    42   41   49 1   
    43   42   43 1   
    44   42   45 1   
    45   42   50 1   
    46   43   44 2   
    47   43   53 1   
    48   45   46 1   
    49   45   51 1   
    50   45   52 1   
    51   46   47 1   
    52   46   48 1   
    53   53   54 1   
    54   53   57 1   
    55   54   55 1   
    56   54   58 1   
    57   54   59 1   
    58   55   56 2   
    59   55   60 1   
    60   60   61 1   
    61   60   68 1   
    62   61   62 1   
    63   61   64 1   
    64   61   69 1   
    65   62   63 2   
    66   62   74 1   
    67   64   65 1   
    68   64   70 1   
    69   64   71 1   
    70   65   66 1   
    71   65   67 2   
    72   66   72 1   
    73   66   73 1   
    74   74   75 1   
    75   74   78 1   
    76   75   76 1   
    77   75   79 1   
    78   75   80 1   
    79   76   77 2   
    80   76   81 1   
    81   81   82 1   
    82   81   93 1   
    83   82   83 1   
    84   82   85 1   
    85   82   94 1   
    86   83   84 2   
    87   83  102 1   
    88   85   86 1   
    89   85   95 1   
    90   85   96 1   
    91   86   87 ar  
    92   86   88 ar  
    93   87   89 ar  
    94   87   97 1   
    95   88   90 ar  
    96   88   98 1   
    97   89   91 ar  
    98   89   99 1   
    99   90   91 ar  
   100   90  100 1   
   101   91   92 1   
   102   92  101 1   
   103  102  103 1   
   104  102  110 1   
   105  103  104 1   
   106  103  106 1   
   107  103  111 1   
   108  104  105 2   
   109  104  121 1   
   110  106  107 1   
   111  106  108 1   
   112  106  112 1   
   113  107  109 1   
   114  107  113 1   
   115  107  114 1   
   116  108  115 1   
   117  108  116 1   
   118  108  117 1   
   119  109  118 1   
   120  109  119 1   
   121  109  120 1   
   122  121  122 1   
   123  121  127 1   
   124  122  123 1   
   125  122  125 1   
   126  122  128 1   
   127  123  124 2   
   128  123  132 1   
   129  125  126 1   
   130  125  129 1   
   131  125  130 1   
   132  126  131 1   
   133  132  133 1   
   134  132  137 1   
   135  133  134 1   
   136  133  136 1   
   137  133  138 1   
   138  134  135 2   
   139  134  142 1   
   140  136  139 1   
   141  136  140 1   
   142  136  141 1   
   143  142  143 1   
   144  142  147 1   
   145  143  144 1   
   146  143  146 1   
   147  143  148 1   
   148  144  145 2   
   149  144  152 1   
   150  146  149 1   
   151  146  150 1   
   152  146  151 1   
   153  152  153 1   
   154  152  161 1   
   155  153  154 1   
   156  153  156 1   
   157  153  162 1   
   158  154  155 2   
   159  154  167 1   
   160  156  157 1   
   161  156  163 1   
   162  156  164 1   
   163  157  158 1   
   164  157  165 1   
   165  157  166 1   
   166  158  159 1   
   167  158  160 1   
   168  167  168 1   
   169  167  172 1   
   170  168  169 1   
   171  168  170 1   
   172  168  171 1   
   173  174  175 1   
   174  174  176 1   
   175  177  178 1   
   176  177  179 1   
@<TRIPOS>SUBSTRUCTURE
     1 MOL         1 TEMP              0 ****  ****    0 ROOT
