@<TRIPOS>MOLECULE
MOL
  186   183     1     0     0
SMALL
resp


@<TRIPOS>ATOM
      1 C1          1.1760   -2.6620    6.2180 c3        1 MOL     -0.434346
      2 C2          1.3870   -2.6040    4.7000 c         1 MOL      0.759742
      3 O1          0.6500   -3.2270    3.9530 o         1 MOL     -0.593909
      4 H1          1.9660   -2.1000    6.7160 hc        1 MOL      0.098525
      5 H2          0.2090   -2.2270    6.4680 hc        1 MOL      0.098525
      6 H3          1.2050   -3.7000    6.5500 hc        1 MOL      0.098525
      7 N1          2.4420   -1.8690    4.2990 n         1 MOL     -0.531343
      8 C3          2.8250   -1.6590    2.8950 c3        1 MOL      0.041177
      9 C4          3.3650   -2.9760    2.2680 c         1 MOL      0.488714
     10 O2          4.4120   -3.4640    2.6090 o         1 MOL     -0.551739
     11 C5          3.8400   -0.5590    2.7000 c3        1 MOL     -0.175967
     12 C6          4.3630   -0.3840    1.2980 c         1 MOL      0.765307
     13 O3          5.2120    0.4800    1.1190 o         1 MOL     -0.706295
     14 O4          3.8620   -1.0080    0.3360 o         1 MOL     -0.706295
     15 H4          2.9850   -1.4170    5.0240 hn        1 MOL      0.308302
     16 H5          1.9360   -1.3740    2.3230 h1        1 MOL      0.027857
     17 H6          4.6710   -0.6520    3.4070 hc        1 MOL      0.033904
     18 H7          3.3410    0.3840    2.9330 hc        1 MOL      0.033904
     19 N2          2.6140   -3.6170    1.3830 n         1 MOL     -0.205219
     20 C7          2.9430   -5.0430    0.9640 c3        1 MOL     -0.278566
     21 C8          4.1110   -4.9510   -0.0110 c         1 MOL      0.581521
     22 O5          5.1030   -5.7130    0.0390 o         1 MOL     -0.604425
     23 C9          1.7590   -5.7580    0.3860 c3        1 MOL      0.210530
     24 C10         0.4050   -5.4430    1.1590 c3        1 MOL      0.061807
     25 C11         1.9710   -7.3020    0.3250 c3        1 MOL     -0.208663
     26 C12        -0.8350   -5.9640    0.3640 c3        1 MOL     -0.257389
     27 H8          1.8780   -3.0470    0.9900 hn        1 MOL      0.204177
     28 H9          3.3870   -5.5610    1.8110 h1        1 MOL      0.130681
     29 H10         1.6500   -5.4070   -0.6390 hc        1 MOL      0.015305
     30 H11         0.2390   -4.3710    1.3290 hc        1 MOL      0.020293
     31 H12         0.4000   -5.9060    2.1410 hc        1 MOL      0.020293
     32 H13         2.8320   -7.5480   -0.2900 hc        1 MOL      0.033900
     33 H14         1.9720   -7.7490    1.3210 hc        1 MOL      0.033900
     34 H15         1.0740   -7.7390   -0.1230 hc        1 MOL      0.033900
     35 H16        -0.9500   -7.0440    0.4310 hc        1 MOL      0.055695
     36 H17        -1.7460   -5.5750    0.8350 hc        1 MOL      0.055695
     37 H18        -0.9080   -5.6050   -0.6630 hc        1 MOL      0.055695
     38 N3          4.1090   -3.9530   -0.8940 n         1 MOL     -0.280862
     39 C13         5.0770   -3.9370   -2.0010 c3        1 MOL      0.036531
     40 C14         6.2950   -3.0560   -1.8090 c         1 MOL      0.344340
     41 O6          7.3480   -3.1400   -2.4880 o         1 MOL     -0.524275
     42 C15         4.2610   -3.7410   -3.2770 c3        1 MOL     -0.310644
     43 C16         3.4250   -2.4790   -3.1360 c         1 MOL      0.779143
     44 O7          2.2750   -2.4390   -3.7240 o         1 MOL     -0.722147
     45 O8          3.7750   -1.4980   -2.4820 o         1 MOL     -0.722147
     46 H19         3.4180   -3.2100   -0.8580 hn        1 MOL      0.258589
     47 H20         5.4150   -4.9680   -2.1280 h1        1 MOL      0.103096
     48 H21         3.6420   -4.6000   -3.5090 hc        1 MOL      0.080051
     49 H22         5.0170   -3.6190   -4.0610 hc        1 MOL      0.080051
     50 N4          6.3010   -2.2490   -0.7070 n         1 MOL     -0.041690
     51 C17         7.4430   -1.4850   -0.3310 c3        1 MOL     -0.325428
     52 C18         7.7880   -0.2680   -1.2880 c         1 MOL      0.554751
     53 O9          8.9990    0.0410   -1.3590 o         1 MOL     -0.611106
     54 H23         5.5370   -2.2460   -0.0420 hn        1 MOL      0.177459
     55 H24         8.3120   -2.1400   -0.3030 h1        1 MOL      0.119144
     56 H25         7.2460   -1.0100    0.6390 h1        1 MOL      0.119144
     57 N5          6.7640    0.3590   -1.7870 n         1 MOL     -0.302730
     58 C19         7.0510    1.7910   -2.2790 c3        1 MOL      0.061462
     59 C20         7.0910    2.7680   -1.0980 c         1 MOL      0.378471
     60 O10         7.5580    3.8560   -1.3370 o         1 MOL     -0.572383
     61 C21         6.0150    2.3190   -3.2840 c3        1 MOL     -0.262458
     62 C22         4.5440    2.1040   -2.8850 c         1 MOL      0.785285
     63 O11         4.2140    1.7880   -1.7070 o         1 MOL     -0.724608
     64 O12         3.6920    2.3530   -3.7510 o         1 MOL     -0.724608
     65 H26         5.8640    0.0130   -1.4920 hn        1 MOL      0.196064
     66 H27         7.9720    1.8930   -2.8550 h1        1 MOL      0.099760
     67 H28         6.1910    1.7440   -4.1860 hc        1 MOL      0.072269
     68 H29         6.2000    3.3690   -3.5030 hc        1 MOL      0.072269
     69 N6          6.8280    2.4350    0.1710 n         1 MOL     -0.158540
     70 C23         6.9300    3.3780    1.3090 c3        1 MOL     -0.177165
     71 C24         5.5750    3.8890    1.7770 c         1 MOL      0.519850
     72 O13         5.5220    4.6030    2.7980 o         1 MOL     -0.588612
     73 H30         6.4580    1.5030    0.2880 hn        1 MOL      0.222769
     74 H31         7.5780    4.2230    1.0610 h1        1 MOL      0.105215
     75 H32         7.4950    2.7380    1.9980 h1        1 MOL      0.105215
     76 N7          4.4840    3.5710    1.0390 n         1 MOL     -0.267470
     77 C25         3.0900    3.9610    1.3790 c3        1 MOL     -0.054581
     78 C26         2.1020    2.7430    1.3790 c         1 MOL      0.612856
     79 O14         2.0920    1.7860    0.6240 o         1 MOL     -0.652619
     80 C27         2.5860    5.0790    0.4990 c3        1 MOL      0.000300
     81 C28         3.2960    6.4300    0.8960 c3        1 MOL     -0.365910
     82 C29         2.5590    7.5480    0.1530 c         1 MOL      0.675869
     83 N8          2.7980    7.7050   -1.1000 n         1 MOL     -0.809158
     84 O15         1.6520    8.2040    0.6450 o         1 MOL     -0.596357
     85 H33         4.5940    2.9570    0.2460 hn        1 MOL      0.248281
     86 H34         3.1390    4.4210    2.3670 h1        1 MOL      0.071150
     87 H35         1.5020    5.0960    0.4860 hc        1 MOL      0.059894
     88 H36         2.8560    4.8910   -0.5430 hc        1 MOL      0.059894
     89 H37         4.3420    6.3730    0.5600 hc        1 MOL      0.127265
     90 H38         3.1480    6.5420    1.9690 hc        1 MOL      0.127265
     91 H39         3.5100    7.1700   -1.5790 hn        1 MOL      0.372759
     92 H40         2.1750    8.3320   -1.5790 hn        1 MOL      0.372759
     93 N9          1.1330    2.8990    2.2450 n         1 MOL     -0.461260
     94 C30        -0.1270    2.0940    2.3160 c3        1 MOL      0.037357
     95 C31        -1.1860    2.6540    1.4120 c         1 MOL      0.359605
     96 O16        -1.8270    3.6950    1.5910 o         1 MOL     -0.580329
     97 C32        -0.6740    2.0080    3.7390 c3        1 MOL      0.061309
     98 C33        -2.0300    1.1820    3.7970 c3        1 MOL     -0.099006
     99 C34         0.3250    1.2630    4.6860 c3        1 MOL     -0.099006
    100 H41         1.1140    3.7420    2.8030 hn        1 MOL      0.284666
    101 H42         0.1840    1.0940    2.0230 h1        1 MOL      0.199959
    102 H43        -0.8170    3.0060    4.1480 hc        1 MOL      0.024866
    103 H44        -1.8730    0.1240    3.5790 hc        1 MOL      0.015619
    104 H45        -2.3920    1.2600    4.8220 hc        1 MOL      0.015619
    105 H46        -2.7940    1.7700    3.2820 hc        1 MOL      0.015619
    106 H47         1.0990    1.9510    5.0220 hc        1 MOL      0.015619
    107 H48        -0.2200    0.9050    5.5610 hc        1 MOL      0.015619
    108 H49         0.8260    0.3720    4.3180 hc        1 MOL      0.015619
    109 N10        -1.5070    1.9810    0.3450 n         1 MOL     -0.028029
    110 C35        -2.7120    2.1840   -0.4670 c3        1 MOL      0.047995
    111 C36        -4.0220    1.8070    0.1890 c         1 MOL      0.314812
    112 O17        -3.9980    0.9770    1.1290 o         1 MOL     -0.263589
    113 C37        -2.5650    1.4570   -1.8270 c3        1 MOL     -0.205157
    114 C38        -3.7140    1.7810   -2.7530 c         1 MOL      0.734335
    115 N11        -3.9060    3.0640   -3.0900 n         1 MOL     -0.798989
    116 O18        -4.4690    0.9610   -3.1790 o         1 MOL     -0.501531
    117 H50        -0.9120    1.1690    0.2380 hn        1 MOL      0.052881
    118 H51        -2.8060    3.2530   -0.6810 h1        1 MOL      0.033663
    119 H52        -2.6240    0.3960   -1.5720 hc        1 MOL      0.075090
    120 H53        -1.6130    1.7930   -2.2320 hc        1 MOL      0.075090
    121 H54        -3.2930    3.8450   -2.8850 hn        1 MOL      0.348048
    122 H55        -4.8140    3.3470   -3.4370 hn        1 MOL      0.348048
    123 N12        -5.1980    2.3870   -0.2130 n         1 MOL     -0.401508
    124 C39        -6.5250    1.9630    0.1920 c3        1 MOL      0.100447
    125 C40        -6.8170    0.4390    0.0020 c         1 MOL      0.706703
    126 O19        -7.3540   -0.1530    0.8840 o         1 MOL     -0.537093
    127 C41        -7.6600    2.9110   -0.3140 c3        1 MOL     -0.038315
    128 C42        -9.0840    2.3110    0.0020 ca        1 MOL      0.042820
    129 C43        -9.5880    2.2670    1.3430 ca        1 MOL     -0.301852
    130 C44        -9.8120    1.6070   -0.9910 ca        1 MOL     -0.301852
    131 C45       -10.8490    1.6930    1.5810 ca        1 MOL     -0.053882
    132 C46       -10.9840    0.8770   -0.7160 ca        1 MOL     -0.053882
    133 C47       -11.5660    1.0330    0.5960 ca        1 MOL      0.159527
    134 O20       -12.7130    0.4400    0.9630 oh        1 MOL     -0.492417
    135 H56        -5.2350    3.0850   -0.9440 hn        1 MOL      0.225641
    136 H57        -6.6440    2.1910    1.2520 h1        1 MOL      0.036828
    137 H58        -7.5640    3.0060   -1.3970 hc        1 MOL      0.025565
    138 H59        -7.5740    3.9210    0.0840 hc        1 MOL      0.025565
    139 H60        -8.9390    2.4490    2.1860 ha        1 MOL      0.169855
    140 H61        -9.4660    1.7010   -2.0170 ha        1 MOL      0.169855
    141 H62       -11.3340    1.7020    2.5460 ha        1 MOL      0.097320
    142 H63       -11.5510    0.3580   -1.4730 ha        1 MOL      0.097320
    143 H64       -13.1590    0.0540    0.2140 ho        1 MOL      0.386742
    144 N13        -6.2290   -0.1150   -1.0570 n         1 MOL     -0.384710
    145 C48        -6.3740   -1.5480   -1.2790 c3        1 MOL     -0.126599
    146 C49        -5.5010   -2.4530   -0.3350 c         1 MOL      0.297666
    147 O21        -5.7110   -3.6840   -0.1950 o         1 MOL     -0.516431
    148 C50        -6.1170   -1.8760   -2.7370 c3        1 MOL      0.155080
    149 C51        -7.2610   -1.3460   -3.6560 c3        1 MOL     -0.209283
    150 C52        -7.0460   -1.8250   -5.1060 c         1 MOL      0.688975
    151 O22        -6.5740   -1.0420   -5.9760 o         1 MOL     -0.734883
    152 O23        -7.3230   -3.0200   -5.4000 o         1 MOL     -0.734883
    153 H65        -5.6110    0.3730   -1.6880 hn        1 MOL      0.207711
    154 H66        -7.4020   -1.8030   -1.0210 h1        1 MOL      0.119649
    155 H67        -6.1210   -2.9550   -2.9260 hc        1 MOL      0.020263
    156 H68        -5.1600   -1.6050   -3.1690 hc        1 MOL      0.020263
    157 H69        -7.3140   -0.2620   -3.5350 hc        1 MOL     -0.011641
    158 H70        -8.2010   -1.7510   -3.2900 hc        1 MOL     -0.011641
    159 N14        -4.5950   -1.8310    0.3850 n         1 MOL     -0.123368
    160 C53        -3.5780   -2.5010    1.2860 c3        1 MOL     -0.102721
    161 C54        -3.9620   -2.2560    2.8310 c         1 MOL      0.454632
    162 O24        -3.7860   -3.1140    3.7040 o         1 MOL     -0.545344
    163 C55        -2.1720   -1.8920    1.0330 c3        1 MOL      0.019660
    164 C56        -1.5380   -2.1160   -0.3090 c3        1 MOL     -0.094273
    165 C57        -0.1290   -1.5310   -0.4590 c         1 MOL      0.769526
    166 O25         0.8870   -2.1470   -0.6810 o         1 MOL     -0.784027
    167 O26        -0.1320   -0.3070   -0.3640 o         1 MOL     -0.784027
    168 H71        -4.5160   -0.8380    0.2150 hn        1 MOL      0.148820
    169 H72        -3.6270   -3.5760    1.0770 h1        1 MOL      0.110875
    170 H73        -1.5970   -2.4090    1.7940 hc        1 MOL      0.042058
    171 H74        -2.1770   -0.8250    1.2600 hc        1 MOL      0.042058
    172 H75        -2.2110   -1.6780   -1.0450 hc        1 MOL      0.028784
    173 H76        -1.4700   -3.1760   -0.5510 hc        1 MOL      0.028784
    174 N15        -4.6150   -1.1130    3.0330 n         1 MOL     -0.037114
    175 C58        -5.1800   -0.7580    4.3280 c3        1 MOL     -0.170415
    176 H77        -5.2900    0.3250    4.3920 h1        1 MOL      0.068368
    177 H78        -6.1570   -1.2290    4.4400 h1        1 MOL      0.068368
    178 H79        -4.5170   -1.1030    5.1210 h1        1 MOL      0.068368
    179 H80        -4.7440   -0.3910    2.3340 hn        1 MOL     -0.000704
    180 Ca1         2.2530    0.1300   -1.3290 Ca        1 MOL      1.797415
    181 O27         1.4890    2.4800   -2.3920 oh        1 MOL     -0.862216
    182 H81         1.4060    3.4270   -2.3260 ho        1 MOL      0.400951
    183 H82         2.0760    2.3280   -3.1340 ho        1 MOL      0.400951
    184 O28         0.9970   -0.2120   -3.7000 oh        1 MOL     -0.862216
    185 H83         1.3970   -1.0420   -3.9370 ho        1 MOL      0.400951
    186 H84         0.0890   -0.2910   -3.9830 ho        1 MOL      0.400951
@<TRIPOS>BOND
     1    1    2 1   
     2    1    4 1   
     3    1    5 1   
     4    1    6 1   
     5    2    3 2   
     6    2    7 1   
     7    7    8 1   
     8    7   15 1   
     9    8    9 1   
    10    8   11 1   
    11    8   16 1   
    12    9   10 2   
    13    9   19 1   
    14   11   12 1   
    15   11   17 1   
    16   11   18 1   
    17   12   13 1   
    18   12   14 1   
    19   19   20 1   
    20   19   27 1   
    21   20   21 1   
    22   20   23 1   
    23   20   28 1   
    24   21   22 2   
    25   21   38 1   
    26   23   24 1   
    27   23   25 1   
    28   23   29 1   
    29   24   26 1   
    30   24   30 1   
    31   24   31 1   
    32   25   32 1   
    33   25   33 1   
    34   25   34 1   
    35   26   35 1   
    36   26   36 1   
    37   26   37 1   
    38   38   39 1   
    39   38   46 1   
    40   39   40 1   
    41   39   42 1   
    42   39   47 1   
    43   40   41 2   
    44   40   50 1   
    45   42   43 1   
    46   42   48 1   
    47   42   49 1   
    48   43   44 1   
    49   43   45 1   
    50   50   51 1   
    51   50   54 1   
    52   51   52 1   
    53   51   55 1   
    54   51   56 1   
    55   52   53 2   
    56   52   57 1   
    57   57   58 1   
    58   57   65 1   
    59   58   59 1   
    60   58   61 1   
    61   58   66 1   
    62   59   60 2   
    63   59   69 1   
    64   61   62 1   
    65   61   67 1   
    66   61   68 1   
    67   62   63 1   
    68   62   64 1   
    69   69   70 1   
    70   69   73 1   
    71   70   71 1   
    72   70   74 1   
    73   70   75 1   
    74   71   72 2   
    75   71   76 1   
    76   76   77 1   
    77   76   85 1   
    78   77   78 1   
    79   77   80 1   
    80   77   86 1   
    81   78   79 2   
    82   78   93 1   
    83   80   81 1   
    84   80   87 1   
    85   80   88 1   
    86   81   82 1   
    87   81   89 1   
    88   81   90 1   
    89   82   83 1   
    90   82   84 2   
    91   83   91 1   
    92   83   92 1   
    93   93   94 1   
    94   93  100 1   
    95   94   95 1   
    96   94   97 1   
    97   94  101 1   
    98   95   96 2   
    99   95  109 1   
   100   97   98 1   
   101   97   99 1   
   102   97  102 1   
   103   98  103 1   
   104   98  104 1   
   105   98  105 1   
   106   99  106 1   
   107   99  107 1   
   108   99  108 1   
   109  109  110 1   
   110  109  117 1   
   111  110  111 1   
   112  110  113 1   
   113  110  118 1   
   114  111  112 2   
   115  111  123 1   
   116  113  114 1   
   117  113  119 1   
   118  113  120 1   
   119  114  115 1   
   120  114  116 2   
   121  115  121 1   
   122  115  122 1   
   123  123  124 1   
   124  123  135 1   
   125  124  125 1   
   126  124  127 1   
   127  124  136 1   
   128  125  126 2   
   129  125  144 1   
   130  127  128 1   
   131  127  137 1   
   132  127  138 1   
   133  128  129 ar  
   134  128  130 ar  
   135  129  131 ar  
   136  129  139 1   
   137  130  132 ar  
   138  130  140 1   
   139  131  133 ar  
   140  131  141 1   
   141  132  133 ar  
   142  132  142 1   
   143  133  134 1   
   144  134  143 1   
   145  144  145 1   
   146  144  153 1   
   147  145  146 1   
   148  145  148 1   
   149  145  154 1   
   150  146  147 2   
   151  146  159 1   
   152  148  149 1   
   153  148  155 1   
   154  148  156 1   
   155  149  150 1   
   156  149  157 1   
   157  149  158 1   
   158  150  151 1   
   159  150  152 1   
   160  159  160 1   
   161  159  168 1   
   162  160  161 1   
   163  160  163 1   
   164  160  169 1   
   165  161  162 2   
   166  161  174 1   
   167  163  164 1   
   168  163  170 1   
   169  163  171 1   
   170  164  165 1   
   171  164  172 1   
   172  164  173 1   
   173  165  166 1   
   174  165  167 1   
   175  174  175 1   
   176  174  179 1   
   177  175  176 1   
   178  175  177 1   
   179  175  178 1   
   180  181  182 1   
   181  181  183 1   
   182  184  185 1   
   183  184  186 1   
@<TRIPOS>SUBSTRUCTURE
     1 MOL         1 TEMP              0 ****  ****    0 ROOT
