@<TRIPOS>MOLECULE
MOL
  179   176     1     0     0
SMALL
resp


@<TRIPOS>ATOM
      1 C1          1.1780    3.6960    5.2780 c3        1 MOL     -0.296584
      2 C2          0.8370    3.2350    3.8730 c         1 MOL      0.728511
      3 O1          1.7670    3.1130    3.0730 o         1 MOL     -0.555936
      4 H1          1.0090    4.7700    5.3580 hc        1 MOL      0.074218
      5 H2          0.5450    3.1750    5.9960 hc        1 MOL      0.074218
      6 H3          2.2250    3.4770    5.4890 hc        1 MOL      0.074218
      7 N1         -0.5130    3.1700    3.5270 n         1 MOL     -0.603067
      8 C3         -0.9250    2.8980    2.1900 c3        1 MOL     -0.089744
      9 C4         -1.4390    4.1150    1.4760 c         1 MOL      0.445712
     10 O2         -2.5160    4.5710    1.8110 o         1 MOL     -0.482994
     11 C5         -2.0330    1.8180    2.2060 c3        1 MOL     -0.150041
     12 C6         -2.3940    1.3190    0.8330 c         1 MOL      0.552374
     13 O3         -1.9340    1.9000   -0.1750 o         1 MOL     -0.649859
     14 O4         -3.2690    0.4290    0.7640 o         1 MOL     -0.649859
     15 H4         -1.2650    3.2830    4.1820 hn        1 MOL      0.347355
     16 H5         -0.0800    2.4800    1.6350 h1        1 MOL      0.089324
     17 H6         -2.9060    2.1960    2.7360 hc        1 MOL      0.084878
     18 H7         -1.5720    1.0230    2.7960 hc        1 MOL      0.084878
     19 N2         -0.6820    4.6770    0.5420 n         1 MOL     -0.177106
     20 C7         -0.9520    5.9770   -0.1220 c3        1 MOL     -0.019226
     21 C8         -2.0340    5.9860   -1.1740 c         1 MOL      0.507034
     22 O5         -2.6650    6.9330   -1.4430 o         1 MOL     -0.532074
     23 C9          0.3120    6.5570   -0.7580 c3        1 MOL     -0.192534
     24 C10         1.5520    6.9610    0.2030 c3        1 MOL      0.097355
     25 C11         1.0270    7.9780    1.1380 c3        1 MOL     -0.098870
     26 C12         2.1840    8.8380    1.6530 c3        1 MOL     -0.068361
     27 N3          1.8160    9.9490    2.4820 n4        1 MOL     -0.151317
     28 H8          0.2020    4.2210    0.3940 hn        1 MOL      0.264231
     29 H9         -1.2920    6.5680    0.7320 h1        1 MOL      0.042761
     30 H10         0.0350    7.4730   -1.2880 hc        1 MOL      0.076004
     31 H11         0.7710    5.8400   -1.4310 hc        1 MOL      0.076004
     32 H12         2.4130    7.3390   -0.3570 hc        1 MOL      0.016011
     33 H13         1.8470    6.0400    0.7100 hc        1 MOL      0.016011
     34 H14         0.6170    7.4330    1.9970 hc        1 MOL      0.066859
     35 H15         0.3190    8.6890    0.7130 hc        1 MOL      0.066859
     36 H16         2.6980    9.3430    0.8300 hx        1 MOL      0.101440
     37 H17         2.8250    8.2420    2.3070 hx        1 MOL      0.101440
     38 H18         1.3610    9.4880    3.2630 hn        1 MOL      0.276572
     39 H19         2.5650   10.5230    2.8460 hn        1 MOL      0.276572
     40 H20         1.1550   10.6240    2.1130 hn        1 MOL      0.276572
     41 N4         -2.4160    4.7640   -1.6360 n         1 MOL     -0.294091
     42 C13        -3.5620    4.4490   -2.5840 c3        1 MOL      0.146306
     43 C14        -4.6910    3.8890   -1.7630 c         1 MOL      0.435492
     44 O6         -5.8040    4.2610   -2.0460 o         1 MOL     -0.575386
     45 C15        -3.0920    3.5420   -3.7000 c3        1 MOL     -0.315176
     46 C16        -2.5750    2.2660   -3.0600 c         1 MOL      0.792801
     47 O7         -3.3460    1.3900   -2.6480 o         1 MOL     -0.728813
     48 O8         -1.3980    1.9570   -3.1250 o         1 MOL     -0.728813
     49 H21        -1.7410    4.0430   -1.4100 hn        1 MOL      0.175578
     50 H22        -3.9090    5.3310   -3.1210 h1        1 MOL      0.069278
     51 H23        -2.2470    3.9710   -4.2590 hc        1 MOL      0.086273
     52 H24        -3.9820    3.2830   -4.2670 hc        1 MOL      0.086273
     53 N5         -4.4280    3.3340   -0.6150 n         1 MOL      0.157882
     54 C17        -5.4840    2.9900    0.3370 c3        1 MOL     -0.179280
     55 C18        -6.3110    1.7950   -0.0570 c         1 MOL      0.437482
     56 O9         -7.4470    1.6980    0.4490 o         1 MOL     -0.544080
     57 H25        -3.4720    3.2380   -0.3110 hn        1 MOL     -0.157670
     58 H26        -6.0350    3.9210    0.4110 h1        1 MOL      0.116444
     59 H27        -5.0600    2.8950    1.3360 h1        1 MOL      0.116444
     60 N6         -5.8520    0.9040   -0.9700 n         1 MOL     -0.121926
     61 C19        -6.4840   -0.3800   -1.2490 c3        1 MOL      0.023734
     62 C20        -6.5460   -1.3390   -0.0100 c         1 MOL      0.329451
     63 O10        -7.2550   -2.3310   -0.0200 o         1 MOL     -0.473244
     64 C21        -5.9220   -1.0280   -2.5080 c3        1 MOL     -0.184577
     65 C22        -4.8500   -2.0990   -2.1980 c         1 MOL      0.388621
     66 N7         -5.0590   -3.2930   -2.7280 n         1 MOL     -0.772860
     67 O11        -3.8760   -1.8880   -1.4300 o         1 MOL     -0.284440
     68 H28        -4.8860    0.9630   -1.2390 hn        1 MOL     -0.057503
     69 H29        -7.5400   -0.2080   -1.4420 h1        1 MOL      0.085646
     70 H30        -5.5960   -0.2740   -3.2240 hc        1 MOL      0.102177
     71 H31        -6.8040   -1.5150   -2.9280 hc        1 MOL      0.102177
     72 H32        -5.9380   -3.6340   -3.0780 hn        1 MOL      0.388192
     73 H33        -4.3720   -4.0240   -2.5550 hn        1 MOL      0.388192
     74 N8         -5.7320   -0.9820    0.9990 n         1 MOL     -0.112482
     75 C23        -5.6760   -1.7890    2.2790 c3        1 MOL     -0.443900
     76 C24        -4.4400   -2.6880    2.3420 c         1 MOL      0.621138
     77 O12        -4.4160   -3.5190    3.2480 o         1 MOL     -0.581382
     78 H34        -5.0100   -0.2960    0.8230 hn        1 MOL      0.265475
     79 H35        -6.5780   -2.4130    2.3070 h1        1 MOL      0.185319
     80 H36        -5.5650   -1.0770    3.1000 h1        1 MOL      0.185319
     81 N9         -3.4780   -2.5460    1.5050 n         1 MOL     -0.161230
     82 C25        -2.3240   -3.3960    1.5600 c3        1 MOL      0.101621
     83 C26        -1.0680   -2.6060    1.1620 c         1 MOL      0.418316
     84 O13        -1.2210   -1.5320    0.5860 o         1 MOL     -0.452325
     85 C27        -2.4860   -4.5850    0.5690 c3        1 MOL      0.286047
     86 C28        -3.7070   -5.4780    0.7490 ca        1 MOL     -0.126310
     87 C29        -4.9520   -5.0150    0.4760 ca        1 MOL     -0.070980
     88 C30        -3.5630   -6.7900    1.2210 ca        1 MOL     -0.070980
     89 C31        -6.0930   -5.8200    0.7340 ca        1 MOL     -0.348967
     90 C32        -4.6880   -7.5840    1.5150 ca        1 MOL     -0.348967
     91 C33        -5.9840   -7.0500    1.3130 ca        1 MOL      0.492413
     92 O14        -7.0800   -7.8130    1.4940 oh        1 MOL     -0.542621
     93 H37        -3.3790   -1.7170    0.9320 hn        1 MOL      0.059017
     94 H38        -2.1870   -3.7510    2.5810 h1        1 MOL      0.006517
     95 H39        -1.5920   -5.2070    0.6050 hc        1 MOL     -0.096662
     96 H40        -2.5330   -4.2370   -0.4600 hc        1 MOL     -0.096662
     97 H41        -5.0510   -4.0700   -0.0440 ha        1 MOL      0.093734
     98 H42        -2.5560   -7.1740    1.3380 ha        1 MOL      0.093734
     99 H43        -7.0620   -5.3730    0.5930 ha        1 MOL      0.149576
    100 H44        -4.7120   -8.5840    1.9290 ha        1 MOL      0.149576
    101 H45        -6.9660   -8.7320    1.7010 ho        1 MOL      0.376305
    102 N10         0.1540   -3.1030    1.4390 n         1 MOL     -0.535219
    103 C34         1.4470   -2.5090    1.0760 c3        1 MOL      0.046782
    104 C35         2.5200   -3.6340    0.8410 c         1 MOL      0.555584
    105 O15         2.6010   -4.5580    1.6580 o         1 MOL     -0.502759
    106 C36         1.9250   -1.4810    2.0480 c3        1 MOL     -0.035714
    107 C37         2.1110   -2.0860    3.4670 c3        1 MOL      0.108644
    108 C38         1.1410   -0.0980    1.9450 c3        1 MOL     -0.312010
    109 C39         3.5560   -2.2020    3.8870 c3        1 MOL     -0.157307
    110 H46         0.0980   -3.9960    1.9070 hn        1 MOL      0.321573
    111 H47         1.3290   -1.9730    0.1290 h1        1 MOL      0.037979
    112 H48         2.9520   -1.2380    1.7560 hc        1 MOL      0.030778
    113 H49         1.7930   -3.1250    3.4040 hc        1 MOL     -0.006872
    114 H50         1.5290   -1.5290    4.1990 hc        1 MOL     -0.006872
    115 H51         0.1020   -0.2590    2.2340 hc        1 MOL      0.114435
    116 H52         1.5230    0.6470    2.6550 hc        1 MOL      0.114435
    117 H53         1.1470    0.1840    0.8950 hc        1 MOL      0.114435
    118 H54         3.6280   -2.7810    4.8110 hc        1 MOL      0.026782
    119 H55         4.0770   -2.6420    3.0330 hc        1 MOL      0.026782
    120 H56         3.9520   -1.1980    4.0670 hc        1 MOL      0.026782
    121 N11         3.1970   -3.5310   -0.3010 n         1 MOL     -0.474759
    122 C40         4.5330   -4.1110   -0.5670 c3        1 MOL      0.031100
    123 C41         5.7660   -3.3530   -0.0220 c         1 MOL      0.616754
    124 O16         5.7180   -2.2240    0.5330 o         1 MOL     -0.453167
    125 C42         4.6550   -4.1280   -2.0830 c3        1 MOL     -0.029884
    126 O17         4.5940   -2.8110   -2.6470 oh        1 MOL     -0.561060
    127 H57         3.0130   -2.7380   -0.9000 hn        1 MOL      0.383425
    128 H58         4.6600   -5.1630   -0.2940 h1        1 MOL      0.053093
    129 H59         3.8050   -4.7170   -2.4050 h1        1 MOL      0.078561
    130 H60         5.6120   -4.5050   -2.4620 h1        1 MOL      0.078561
    131 H61         3.7200   -2.4120   -2.6290 ho        1 MOL      0.380572
    132 N12         6.9490   -4.0040   -0.1070 n         1 MOL     -0.569781
    133 C43         8.2580   -3.3720    0.2570 c3        1 MOL      0.130804
    134 C44         8.5760   -2.0340   -0.4340 c         1 MOL      0.405778
    135 O18         8.8970   -1.1000    0.3150 o         1 MOL     -0.488780
    136 C45         9.4330   -4.3010    0.0270 c3        1 MOL     -0.279344
    137 H62         7.0220   -4.8100   -0.7050 hn        1 MOL      0.301754
    138 H63         8.2910   -3.0780    1.3050 h1        1 MOL      0.096992
    139 H64        10.3640   -3.8630    0.3940 hc        1 MOL      0.086722
    140 H65         9.3750   -5.2540    0.5580 hc        1 MOL      0.086722
    141 H66         9.6780   -4.5120   -1.0100 hc        1 MOL      0.086722
    142 N13         8.2730   -1.8300   -1.7350 n         1 MOL     -0.332647
    143 C46         8.4210   -0.6370   -2.4180 c3        1 MOL      0.105356
    144 C47         7.5090    0.5580   -1.8500 c         1 MOL      0.286040
    145 O19         7.9270    1.7250   -1.8570 o         1 MOL     -0.511429
    146 C48         7.9430   -0.8700   -3.8380 c3        1 MOL     -0.268021
    147 H67         8.0170   -2.6510   -2.2590 hn        1 MOL      0.285765
    148 H68         9.4640   -0.3270   -2.3580 h1        1 MOL      0.076329
    149 H69         8.6090   -1.6160   -4.2740 hc        1 MOL      0.073908
    150 H70         6.9170   -1.2230   -3.7630 hc        1 MOL      0.073908
    151 H71         7.8610    0.0320   -4.4360 hc        1 MOL      0.073908
    152 N14         6.3590    0.1930   -1.3440 n         1 MOL      0.082548
    153 C49         5.3990    1.0310   -0.6280 c3        1 MOL     -0.099806
    154 C50         5.8500    1.3960    0.8050 c         1 MOL      0.467945
    155 O20         5.6670    2.5280    1.1700 o         1 MOL     -0.552009
    156 C51         3.9690    0.3990   -0.6890 c3        1 MOL     -0.000605
    157 C52         3.2180    0.5890   -2.0420 c3        1 MOL     -0.236193
    158 C53         2.0240   -0.2150   -2.1020 c         1 MOL      0.795533
    159 O21         2.0990   -1.4630   -2.2680 o         1 MOL     -0.748676
    160 O22         0.8410    0.2630   -2.0420 o         1 MOL     -0.748676
    161 H72         6.0410   -0.7580   -1.5160 hn        1 MOL      0.044611
    162 H73         5.3230    1.9690   -1.1790 h1        1 MOL      0.089181
    163 H74         3.2160    0.8060    0.0010 hc        1 MOL      0.021212
    164 H75         4.0780   -0.6470   -0.4060 hc        1 MOL      0.021212
    165 H76         3.8330    0.5070   -2.9470 hc        1 MOL      0.068284
    166 H77         2.9800    1.6500   -2.1330 hc        1 MOL      0.068284
    167 N15         6.6590    0.5680    1.4840 n         1 MOL     -0.149933
    168 C54         7.2990    0.8730    2.7940 c3        1 MOL     -0.185237
    169 H78         7.1250    1.9180    3.0480 h1        1 MOL      0.088228
    170 H79         6.8700    0.2350    3.5650 h1        1 MOL      0.088228
    171 H80         8.3720    0.6900    2.7250 h1        1 MOL      0.088228
    172 H81         6.8960   -0.3040    1.0360 hn        1 MOL      0.147208
    173 Ca1        -1.7370   -0.2770   -1.7620 Ca        1 MOL      1.728621
    174 O23        -2.4170   -0.7190   -4.3260 oh        1 MOL     -0.808213
    175 H82        -2.3550   -1.3310   -5.0540 ho        1 MOL      0.401260
    176 H83        -3.0520   -0.0660   -4.6070 ho        1 MOL      0.401260
    177 O24        -1.2710   -2.8050   -2.4090 oh        1 MOL     -0.808213
    178 H84        -0.5010   -3.3180   -2.1480 ho        1 MOL      0.401260
    179 H85        -1.8520   -3.4360   -2.8380 ho        1 MOL      0.401260
@<TRIPOS>BOND
     1    1    2 1   
     2    1    4 1   
     3    1    5 1   
     4    1    6 1   
     5    2    3 2   
     6    2    7 1   
     7    7    8 1   
     8    7   15 1   
     9    8    9 1   
    10    8   11 1   
    11    8   16 1   
    12    9   10 2   
    13    9   19 1   
    14   11   12 1   
    15   11   17 1   
    16   11   18 1   
    17   12   13 1   
    18   12   14 1   
    19   19   20 1   
    20   19   28 1   
    21   20   21 1   
    22   20   23 1   
    23   20   29 1   
    24   21   22 2   
    25   21   41 1   
    26   23   24 1   
    27   23   30 1   
    28   23   31 1   
    29   24   25 1   
    30   24   32 1   
    31   24   33 1   
    32   25   26 1   
    33   25   34 1   
    34   25   35 1   
    35   26   27 1   
    36   26   36 1   
    37   26   37 1   
    38   27   38 1   
    39   27   39 1   
    40   27   40 1   
    41   41   42 1   
    42   41   49 1   
    43   42   43 1   
    44   42   45 1   
    45   42   50 1   
    46   43   44 2   
    47   43   53 1   
    48   45   46 1   
    49   45   51 1   
    50   45   52 1   
    51   46   47 1   
    52   46   48 1   
    53   53   54 1   
    54   53   57 1   
    55   54   55 1   
    56   54   58 1   
    57   54   59 1   
    58   55   56 2   
    59   55   60 1   
    60   60   61 1   
    61   60   68 1   
    62   61   62 1   
    63   61   64 1   
    64   61   69 1   
    65   62   63 2   
    66   62   74 1   
    67   64   65 1   
    68   64   70 1   
    69   64   71 1   
    70   65   66 1   
    71   65   67 2   
    72   66   72 1   
    73   66   73 1   
    74   74   75 1   
    75   74   78 1   
    76   75   76 1   
    77   75   79 1   
    78   75   80 1   
    79   76   77 2   
    80   76   81 1   
    81   81   82 1   
    82   81   93 1   
    83   82   83 1   
    84   82   85 1   
    85   82   94 1   
    86   83   84 2   
    87   83  102 1   
    88   85   86 1   
    89   85   95 1   
    90   85   96 1   
    91   86   87 ar  
    92   86   88 ar  
    93   87   89 ar  
    94   87   97 1   
    95   88   90 ar  
    96   88   98 1   
    97   89   91 ar  
    98   89   99 1   
    99   90   91 ar  
   100   90  100 1   
   101   91   92 1   
   102   92  101 1   
   103  102  103 1   
   104  102  110 1   
   105  103  104 1   
   106  103  106 1   
   107  103  111 1   
   108  104  105 2   
   109  104  121 1   
   110  106  107 1   
   111  106  108 1   
   112  106  112 1   
   113  107  109 1   
   114  107  113 1   
   115  107  114 1   
   116  108  115 1   
   117  108  116 1   
   118  108  117 1   
   119  109  118 1   
   120  109  119 1   
   121  109  120 1   
   122  121  122 1   
   123  121  127 1   
   124  122  123 1   
   125  122  125 1   
   126  122  128 1   
   127  123  124 2   
   128  123  132 1   
   129  125  126 1   
   130  125  129 1   
   131  125  130 1   
   132  126  131 1   
   133  132  133 1   
   134  132  137 1   
   135  133  134 1   
   136  133  136 1   
   137  133  138 1   
   138  134  135 2   
   139  134  142 1   
   140  136  139 1   
   141  136  140 1   
   142  136  141 1   
   143  142  143 1   
   144  142  147 1   
   145  143  144 1   
   146  143  146 1   
   147  143  148 1   
   148  144  145 2   
   149  144  152 1   
   150  146  149 1   
   151  146  150 1   
   152  146  151 1   
   153  152  153 1   
   154  152  161 1   
   155  153  154 1   
   156  153  156 1   
   157  153  162 1   
   158  154  155 2   
   159  154  167 1   
   160  156  157 1   
   161  156  163 1   
   162  156  164 1   
   163  157  158 1   
   164  157  165 1   
   165  157  166 1   
   166  158  159 1   
   167  158  160 1   
   168  167  168 1   
   169  167  172 1   
   170  168  169 1   
   171  168  170 1   
   172  168  171 1   
   173  174  175 1   
   174  174  176 1   
   175  177  178 1   
   176  177  179 1   
@<TRIPOS>SUBSTRUCTURE
     1 MOL         1 TEMP              0 ****  ****    0 ROOT
