@<TRIPOS>MOLECULE
MOL
  189   185     1     0     0
SMALL
resp


@<TRIPOS>ATOM
      1 C1         -0.2680    2.2900   -5.6220 c3        1 MOL     -0.356554
      2 C2          0.2740    2.2960   -4.1790 c         1 MOL      0.618871
      3 O1         -0.3040    3.0340   -3.3780 o         1 MOL     -0.564192
      4 H1          0.3190    1.5990   -6.2270 hc        1 MOL      0.093221
      5 H2         -1.3100    1.9720   -5.6170 hc        1 MOL      0.093221
      6 H3         -0.1950    3.2930   -6.0430 hc        1 MOL      0.093221
      7 N1          1.4780    1.6630   -3.9850 n         1 MOL     -0.462940
      8 C3          2.2030    1.6630   -2.7160 c3        1 MOL      0.020663
      9 C4          2.7730    3.0370   -2.3280 c         1 MOL      0.613202
     10 O2          3.6400    3.5970   -2.9330 o         1 MOL     -0.552871
     11 C5          3.3150    0.5100   -2.7930 c3        1 MOL     -0.256690
     12 C6          4.0040    0.1720   -1.4840 c         1 MOL      0.782209
     13 O3          3.5410    0.7200   -0.4440 o         1 MOL     -0.708419
     14 O4          5.0300   -0.5750   -1.4430 o         1 MOL     -0.708419
     15 H4          1.8800    1.1040   -4.7320 hn        1 MOL      0.306428
     16 H5          1.4930    1.4080   -1.9370 h1        1 MOL      0.013151
     17 H6          4.0720    0.8590   -3.4940 hc        1 MOL      0.065222
     18 H7          2.8720   -0.4340   -3.0830 hc        1 MOL      0.065222
     19 N2          2.1250    3.6020   -1.3010 n         1 MOL     -0.455200
     20 C7          2.4460    4.9100   -0.6100 c3        1 MOL      0.005434
     21 C8          3.5840    4.9480    0.4070 c         1 MOL      0.440114
     22 O5          4.3760    5.9230    0.4390 o         1 MOL     -0.545242
     23 C9          1.2360    5.6750   -0.1360 c3        1 MOL     -0.059929
     24 C10         0.3520    6.1490   -1.3510 c3        1 MOL      0.237995
     25 C11        -0.7630    7.1460   -1.0430 c3        1 MOL     -0.164071
     26 C12        -1.4990    7.5360   -2.3390 c3        1 MOL      0.145034
     27 N3         -2.4590    8.5820   -2.1660 n4        1 MOL     -0.327348
     28 H8          1.4560    2.9390   -0.9410 hn        1 MOL      0.284325
     29 H9          2.9210    5.4680   -1.4080 h1        1 MOL      0.062613
     30 H10         1.6090    6.5350    0.4140 hc        1 MOL      0.034840
     31 H11         0.6900    5.0300    0.5510 hc        1 MOL      0.034840
     32 H12        -0.0660    5.2860   -1.8810 hc        1 MOL     -0.023113
     33 H13         1.0580    6.7400   -1.9290 hc        1 MOL     -0.023113
     34 H14        -0.2650    7.9660   -0.5290 hc        1 MOL      0.025051
     35 H15        -1.3580    6.5970   -0.3090 hc        1 MOL      0.025051
     36 H16        -2.0200    6.6580   -2.7210 hx        1 MOL      0.060866
     37 H17        -0.6780    7.7530   -3.0250 hx        1 MOL      0.060866
     38 H18        -3.1090    8.2010   -1.4920 hn        1 MOL      0.313688
     39 H19        -2.0660    9.4150   -1.7460 hn        1 MOL      0.313688
     40 H20        -2.8970    8.8760   -3.0210 hn        1 MOL      0.313688
     41 N4          3.5010    4.0110    1.3260 n         1 MOL     -0.300930
     42 C13         4.5930    3.9450    2.2940 c3        1 MOL     -0.029689
     43 C14         5.9030    3.1630    1.8210 c         1 MOL      0.426513
     44 O6          6.9250    3.1930    2.5390 o         1 MOL     -0.508443
     45 C15         4.0130    3.2910    3.6260 c3        1 MOL     -0.342924
     46 C16         2.9830    2.1830    3.4420 c         1 MOL      0.803965
     47 O7          3.0900    1.3900    2.4740 o         1 MOL     -0.722886
     48 O8          1.9660    2.2100    4.2480 o         1 MOL     -0.722886
     49 H21         2.7630    3.3180    1.3250 hn        1 MOL      0.282872
     50 H22         4.9020    4.9700    2.5350 h1        1 MOL      0.122003
     51 H23         3.6720    4.0300    4.3550 hc        1 MOL      0.096389
     52 H24         4.8650    2.8030    4.1050 hc        1 MOL      0.096389
     53 N5          5.7860    2.5690    0.6210 n         1 MOL     -0.293519
     54 C17         6.8760    1.7540    0.0120 c3        1 MOL     -0.067224
     55 C18         7.3590    0.5440    0.7430 c         1 MOL      0.511380
     56 O9          8.5650    0.2300    0.7390 o         1 MOL     -0.598011
     57 H25         4.8830    2.5860    0.1790 hn        1 MOL      0.289232
     58 H26         7.7360    2.3840   -0.2360 h1        1 MOL      0.076618
     59 H27         6.5200    1.4180   -0.9630 h1        1 MOL      0.076618
     60 N6          6.5160   -0.2010    1.4410 n         1 MOL     -0.209128
     61 C19         6.8010   -1.4900    2.1200 c3        1 MOL     -0.048511
     62 C20         6.8470   -2.7560    1.1040 c         1 MOL      0.497166
     63 O10         6.9140   -3.9270    1.4800 o         1 MOL     -0.553011
     64 C21         5.7780   -1.6800    3.3300 c3        1 MOL     -0.303389
     65 C22         4.2710   -1.6970    2.9220 c         1 MOL      0.752356
     66 O11         4.0410   -1.8090    1.6910 o         1 MOL     -0.691016
     67 O12         3.3460   -1.4700    3.7120 o         1 MOL     -0.691016
     68 H28         5.5560    0.0710    1.2800 hn        1 MOL      0.202137
     69 H29         7.8320   -1.4650    2.4740 h1        1 MOL      0.115664
     70 H30         6.0010   -0.8810    4.0350 hc        1 MOL      0.087451
     71 H31         5.9840   -2.6410    3.7990 hc        1 MOL      0.087451
     72 N7          6.7400   -2.4250   -0.1790 n         1 MOL     -0.309309
     73 C23         6.6850   -3.3640   -1.2030 c3        1 MOL     -0.137533
     74 C24         5.4080   -4.1290   -1.3760 c         1 MOL      0.494723
     75 O13         5.3410   -5.1210   -2.1340 o         1 MOL     -0.605747
     76 H32         6.3180   -1.5230   -0.3490 hn        1 MOL      0.289439
     77 H33         7.4990   -4.0920   -1.1430 h1        1 MOL      0.101201
     78 H34         6.8440   -2.8780   -2.1660 h1        1 MOL      0.101201
     79 N8          4.3390   -3.8020   -0.7120 n         1 MOL     -0.133250
     80 C25         3.0160   -4.4710   -0.8250 c3        1 MOL     -0.105537
     81 C26         1.9120   -3.4470   -1.0170 c         1 MOL      0.818643
     82 O14         1.9940   -2.2660   -0.7000 o         1 MOL     -0.713122
     83 C27         2.7360   -5.5480    0.2430 c3        1 MOL      0.352197
     84 C28         3.5910   -6.7990    0.2570 c3        1 MOL     -0.383340
     85 O15         2.6490   -5.0190    1.5490 oh        1 MOL     -0.627583
     86 H35         4.3580   -3.0450   -0.0370 hn        1 MOL      0.133757
     87 H36         3.0910   -4.9100   -1.8240 h1        1 MOL      0.061775
     88 H37         1.7510   -5.9280   -0.0320 h1        1 MOL      0.023206
     89 H38         3.5140   -5.1870    1.9270 ho        1 MOL      0.415432
     90 H39         3.8430   -7.0090   -0.7830 hc        1 MOL      0.105417
     91 H40         4.5140   -6.7620    0.8240 hc        1 MOL      0.105417
     92 H41         2.9800   -7.6000    0.6560 hc        1 MOL      0.105417
     93 N9          0.7700   -3.8710   -1.5700 n         1 MOL     -0.676373
     94 C29        -0.4740   -3.0510   -1.7560 c3        1 MOL      0.108576
     95 C30        -1.6090   -3.7290   -1.0860 c         1 MOL      0.535306
     96 O16        -1.9070   -4.9120   -1.2260 o         1 MOL     -0.544232
     97 C31        -0.7750   -2.9080   -3.2670 c3        1 MOL      0.149217
     98 C32         0.4070   -2.1660   -4.0010 c3        1 MOL      0.083167
     99 C33        -2.0440   -2.1050   -3.5420 c3        1 MOL     -0.276804
    100 C34         0.3120   -2.4350   -5.5160 c3        1 MOL     -0.185559
    101 H42         0.6700   -4.8480   -1.8180 hn        1 MOL      0.289617
    102 H43        -0.3220   -2.0810   -1.3010 h1        1 MOL      0.069398
    103 H44        -0.9250   -3.9070   -3.6720 hc        1 MOL      0.016073
    104 H45         1.3620   -2.5640   -3.6580 hc        1 MOL      0.005089
    105 H46         0.3520   -1.0930   -3.8350 hc        1 MOL      0.005089
    106 H47        -2.8900   -2.7640   -3.3370 hc        1 MOL      0.043011
    107 H48        -2.1060   -1.2420   -2.8720 hc        1 MOL      0.043011
    108 H49        -2.2010   -1.7810   -4.5750 hc        1 MOL      0.043011
    109 H50         0.4890   -3.4860   -5.7550 hc        1 MOL      0.035828
    110 H51        -0.6690   -2.1810   -5.9170 hc        1 MOL      0.035828
    111 H52         1.0560   -1.8220   -6.0350 hc        1 MOL      0.035828
    112 N10        -2.2910   -2.8230   -0.3030 n         1 MOL     -0.241062
    113 C35        -3.4940   -3.1330    0.4960 c3        1 MOL     -0.027259
    114 C36        -4.8350   -2.9660   -0.2140 c         1 MOL      0.395726
    115 O17        -4.8470   -2.3690   -1.3140 o         1 MOL     -0.357821
    116 C37        -3.5430   -2.3630    1.7720 c3        1 MOL     -0.032262
    117 C38        -2.2990   -2.4870    2.7430 c3        1 MOL     -0.150226
    118 O18        -3.8130   -1.0340    1.4750 oh        1 MOL     -0.294773
    119 H53        -1.8970   -1.8980   -0.2490 hn        1 MOL      0.184309
    120 H54        -3.4250   -4.1680    0.8270 h1        1 MOL      0.086753
    121 H55        -4.3510   -2.7740    2.3810 h1        1 MOL      0.042367
    122 H56        -3.6850   -0.4440    2.2110 ho        1 MOL      0.358656
    123 H57        -1.5720   -1.7590    2.4020 hc        1 MOL      0.053541
    124 H58        -2.6330   -2.2050    3.7490 hc        1 MOL      0.053541
    125 H59        -1.8270   -3.4570    2.8430 hc        1 MOL      0.053541
    126 N11        -5.9880   -3.3490    0.4170 n         1 MOL     -0.311874
    127 C39        -7.2820   -2.8660    0.0310 c3        1 MOL     -0.212146
    128 C40        -7.4530   -1.3860   -0.0030 c         1 MOL      0.429521
    129 O19        -8.0310   -0.8850   -0.9800 o         1 MOL     -0.482118
    130 C41        -8.3470   -3.5290    0.8480 c3        1 MOL      0.298993
    131 C42        -8.5770   -5.0490    0.7190 c3        1 MOL     -0.396481
    132 O20        -8.1280   -3.2530    2.2190 oh        1 MOL     -0.666453
    133 H60        -5.9390   -3.8910    1.2690 hn        1 MOL      0.281011
    134 H61        -7.4370   -3.2190   -0.9980 h1        1 MOL      0.159743
    135 H62        -9.3190   -3.0950    0.6210 h1        1 MOL      0.060497
    136 H63        -8.5930   -3.8980    2.7460 ho        1 MOL      0.424903
    137 H64        -7.8170   -5.6280    1.2400 hc        1 MOL      0.115484
    138 H65        -9.5580   -5.3110    1.1120 hc        1 MOL      0.115484
    139 H66        -8.6320   -5.2290   -0.3610 hc        1 MOL      0.115484
    140 N12        -6.9530   -0.6310    0.9960 n         1 MOL     -0.187659
    141 C43        -7.0640    0.8400    0.9970 c3        1 MOL     -0.163836
    142 C44        -6.2240    1.5170   -0.0910 c         1 MOL      0.320063
    143 O21        -6.7830    2.3140   -0.8620 o         1 MOL     -0.494225
    144 C45        -6.7200    1.3270    2.3990 c3        1 MOL     -0.003191
    145 C46        -6.9530    2.8400    2.6430 c3        1 MOL     -0.084336
    146 C47        -6.8070    3.1210    4.1520 c3        1 MOL     -0.022519
    147 C48        -7.9030    2.5800    5.0070 c3        1 MOL      0.068065
    148 N13        -7.6370    2.8750    6.4580 n4        1 MOL     -0.315209
    149 H67        -6.5310   -1.1960    1.7160 hn        1 MOL      0.197417
    150 H68        -8.1040    1.0630    0.7690 h1        1 MOL      0.157278
    151 H69        -5.6940    1.0450    2.6380 hc        1 MOL      0.008165
    152 H70        -7.3140    0.6990    3.0710 hc        1 MOL      0.008165
    153 H71        -7.9490    3.0800    2.2730 hc        1 MOL      0.070372
    154 H72        -6.2380    3.4740    2.1210 hc        1 MOL      0.070372
    155 H73        -6.7910    4.2050    4.2380 hc        1 MOL      0.035579
    156 H74        -5.8490    2.7320    4.4940 hc        1 MOL      0.035579
    157 H75        -7.9110    1.5030    4.8990 hx        1 MOL      0.081150
    158 H76        -8.9140    2.8750    4.7230 hx        1 MOL      0.081150
    159 H77        -8.4730    2.9670    7.0260 hn        1 MOL      0.277930
    160 H78        -7.0560    2.2020    6.9450 hn        1 MOL      0.277930
    161 H79        -7.1840    3.7550    6.6480 hn        1 MOL      0.277930
    162 N14        -4.9600    1.0990   -0.3500 n         1 MOL     -0.093677
    163 C49        -4.1010    1.5090   -1.4860 c3        1 MOL     -0.227304
    164 C50        -4.6070    1.0430   -2.8460 c         1 MOL      0.531188
    165 O22        -4.2850    1.6370   -3.8320 o         1 MOL     -0.575538
    166 C51        -2.8120    0.8490   -1.1960 c3        1 MOL      0.308103
    167 C52        -2.0790    1.5620    0.0390 c3        1 MOL     -0.527564
    168 C53        -0.6550    0.9300    0.2120 c         1 MOL      0.791618
    169 O23        -0.5470   -0.3160    0.3490 o         1 MOL     -0.696406
    170 O24         0.3520    1.6420    0.2850 o         1 MOL     -0.696406
    171 H80        -4.5780    0.3450    0.2000 hn        1 MOL      0.061753
    172 H81        -4.0330    2.5980   -1.4930 h1        1 MOL      0.132422
    173 H82        -2.2490    1.0770   -2.0980 hc        1 MOL      0.010769
    174 H83        -2.9520   -0.2100   -0.9940 hc        1 MOL      0.010769
    175 H84        -2.6570    1.4270    0.9490 hc        1 MOL      0.109891
    176 H85        -2.0050    2.6110   -0.2320 hc        1 MOL      0.109891
    177 N15        -5.4260    0.0080   -2.9660 n         1 MOL     -0.064980
    178 C54        -6.2920   -0.2460   -4.1990 c3        1 MOL     -0.322379
    179 H86        -5.7540   -0.8900   -4.8940 h1        1 MOL      0.123475
    180 H87        -7.2200   -0.7320   -3.8980 h1        1 MOL      0.123475
    181 H88        -6.5200    0.7020   -4.6860 h1        1 MOL      0.123475
    182 H89        -5.4490   -0.6850   -2.2300 hn        1 MOL      0.115674
    183 Ca1         1.8510   -0.5430    1.2690 Ca        1 MOL      1.741126
    184 O25         0.3960   -0.0330    3.7320 oh        1 MOL     -0.857918
    185 H90         0.7100    0.7370    4.2060 ho        1 MOL      0.402371
    186 H91         0.0970   -0.6350    4.4160 ho        1 MOL      0.402371
    187 O26         0.9110   -2.8610    2.3000 oh        1 MOL     -0.857918
    188 H92         1.5600   -3.4770    1.9580 ho        1 MOL      0.402371
    189 H93         0.6680   -3.2150    3.1570 ho        1 MOL      0.402371
@<TRIPOS>BOND
     1    1    2 1   
     2    1    4 1   
     3    1    5 1   
     4    1    6 1   
     5    2    3 2   
     6    2    7 1   
     7    7    8 1   
     8    7   15 1   
     9    8    9 1   
    10    8   11 1   
    11    8   16 1   
    12    9   10 2   
    13    9   19 1   
    14   11   12 1   
    15   11   17 1   
    16   11   18 1   
    17   12   13 1   
    18   12   14 1   
    19   19   20 1   
    20   19   28 1   
    21   20   21 1   
    22   20   23 1   
    23   20   29 1   
    24   21   22 2   
    25   21   41 1   
    26   23   24 1   
    27   23   30 1   
    28   23   31 1   
    29   24   25 1   
    30   24   32 1   
    31   24   33 1   
    32   25   26 1   
    33   25   34 1   
    34   25   35 1   
    35   26   27 1   
    36   26   36 1   
    37   26   37 1   
    38   27   38 1   
    39   27   39 1   
    40   27   40 1   
    41   41   42 1   
    42   41   49 1   
    43   42   43 1   
    44   42   45 1   
    45   42   50 1   
    46   43   44 2   
    47   43   53 1   
    48   45   46 1   
    49   45   51 1   
    50   45   52 1   
    51   46   47 1   
    52   46   48 1   
    53   53   54 1   
    54   53   57 1   
    55   54   55 1   
    56   54   58 1   
    57   54   59 1   
    58   55   56 2   
    59   55   60 1   
    60   60   61 1   
    61   60   68 1   
    62   61   62 1   
    63   61   64 1   
    64   61   69 1   
    65   62   63 2   
    66   62   72 1   
    67   64   65 1   
    68   64   70 1   
    69   64   71 1   
    70   65   66 1   
    71   65   67 1   
    72   72   73 1   
    73   72   76 1   
    74   73   74 1   
    75   73   77 1   
    76   73   78 1   
    77   74   75 2   
    78   74   79 1   
    79   79   80 1   
    80   79   86 1   
    81   80   81 1   
    82   80   83 1   
    83   80   87 1   
    84   81   82 2   
    85   81   93 1   
    86   83   84 1   
    87   83   85 1   
    88   83   88 1   
    89   84   90 1   
    90   84   91 1   
    91   84   92 1   
    92   85   89 1   
    93   93   94 1   
    94   93  101 1   
    95   94   95 1   
    96   94   97 1   
    97   94  102 1   
    98   95   96 2   
    99   95  112 1   
   100   97   98 1   
   101   97   99 1   
   102   97  103 1   
   103   98  100 1   
   104   98  104 1   
   105   98  105 1   
   106   99  106 1   
   107   99  107 1   
   108   99  108 1   
   109  100  109 1   
   110  100  110 1   
   111  100  111 1   
   112  112  113 1   
   113  112  119 1   
   114  113  114 1   
   115  113  116 1   
   116  113  120 1   
   117  114  115 2   
   118  114  126 1   
   119  116  117 1   
   120  116  118 1   
   121  116  121 1   
   122  117  123 1   
   123  117  124 1   
   124  117  125 1   
   125  118  122 1   
   126  126  127 1   
   127  126  133 1   
   128  127  128 1   
   129  127  130 1   
   130  127  134 1   
   131  128  129 2   
   132  128  140 1   
   133  130  131 1   
   134  130  132 1   
   135  130  135 1   
   136  131  137 1   
   137  131  138 1   
   138  131  139 1   
   139  132  136 1   
   140  140  141 1   
   141  140  149 1   
   142  141  142 1   
   143  141  144 1   
   144  141  150 1   
   145  142  143 2   
   146  142  162 1   
   147  144  145 1   
   148  144  151 1   
   149  144  152 1   
   150  145  146 1   
   151  145  153 1   
   152  145  154 1   
   153  146  147 1   
   154  146  155 1   
   155  146  156 1   
   156  147  148 1   
   157  147  157 1   
   158  147  158 1   
   159  148  159 1   
   160  148  160 1   
   161  148  161 1   
   162  162  163 1   
   163  162  171 1   
   164  163  164 1   
   165  163  166 1   
   166  163  172 1   
   167  164  165 2   
   168  164  177 1   
   169  166  167 1   
   170  166  173 1   
   171  166  174 1   
   172  167  168 1   
   173  167  175 1   
   174  167  176 1   
   175  168  169 1   
   176  168  170 1   
   177  177  178 1   
   178  177  182 1   
   179  178  179 1   
   180  178  180 1   
   181  178  181 1   
   182  184  185 1   
   183  184  186 1   
   184  187  188 1   
   185  187  189 1   
@<TRIPOS>SUBSTRUCTURE
     1 MOL         1 TEMP              0 ****  ****    0 ROOT
