@<TRIPOS>MOLECULE
MOL
  189   185     1     0     0
SMALL
resp


@<TRIPOS>ATOM
      1 C1          0.7110    2.4250    4.9970 c3        1 MOL     -0.294310
      2 C2         -0.1170    2.3840    3.7300 c         1 MOL      0.641118
      3 O1          0.2800    2.9020    2.6990 o         1 MOL     -0.600894
      4 H1          0.3850    1.6310    5.6690 hc        1 MOL      0.081140
      5 H2          1.7620    2.2820    4.7500 hc        1 MOL      0.081140
      6 H3          0.5790    3.3900    5.4860 hc        1 MOL      0.081140
      7 N1         -1.3070    1.7330    3.6290 n         1 MOL     -0.535736
      8 C3         -1.9970    1.5370    2.3690 c3        1 MOL      0.118754
      9 C4         -2.7000    2.8690    1.9200 c         1 MOL      0.421550
     10 O2         -3.8910    3.0380    2.0800 o         1 MOL     -0.467683
     11 C5         -3.0600    0.4280    2.4900 c3        1 MOL     -0.363169
     12 C6         -3.8790    0.1140    1.2160 c         1 MOL      0.809857
     13 O3         -3.4670    0.5570    0.1190 o         1 MOL     -0.725874
     14 O4         -4.9560   -0.5370    1.3400 o         1 MOL     -0.725874
     15 H4         -1.7400    1.3080    4.4340 hn        1 MOL      0.301541
     16 H5         -1.2910    1.2170    1.5900 h1        1 MOL      0.081051
     17 H6         -3.7560    0.7000    3.2820 hc        1 MOL      0.096822
     18 H7         -2.5980   -0.5280    2.7570 hc        1 MOL      0.096822
     19 N2         -1.9170    3.7530    1.2400 n         1 MOL     -0.279293
     20 C7         -2.3720    5.0710    0.8180 c3        1 MOL     -0.004130
     21 C8         -3.5330    5.0270   -0.2170 c         1 MOL      0.444154
     22 O5         -4.2200    6.0350   -0.3560 o         1 MOL     -0.552518
     23 C9         -1.1640    5.9050    0.1530 c3        1 MOL     -0.044980
     24 C10         0.0650    6.1570    1.0940 c3        1 MOL     -0.036660
     25 C11        -0.3970    6.8190    2.3060 c3        1 MOL      0.159041
     26 C12         0.6140    7.7170    2.9060 c3        1 MOL     -0.116420
     27 N3          1.7900    7.0540    3.5270 n4        1 MOL     -0.218299
     28 H8         -0.9820    3.4090    1.0770 hn        1 MOL      0.300546
     29 H9         -2.7860    5.5530    1.6980 h1        1 MOL      0.049400
     30 H10        -1.5840    6.8360   -0.2260 hc        1 MOL      0.048739
     31 H11        -0.8110    5.4040   -0.7470 hc        1 MOL      0.048739
     32 H12         0.7910    6.8220    0.6190 hc        1 MOL      0.006142
     33 H13         0.5030    5.1900    1.3760 hc        1 MOL      0.006142
     34 H14        -0.6160    6.0160    3.0070 hc        1 MOL      0.000772
     35 H15        -1.2980    7.3990    2.1000 hc        1 MOL      0.000772
     36 H16         0.0520    8.3150    3.6170 hx        1 MOL      0.096738
     37 H17         1.0120    8.3270    2.1020 hx        1 MOL      0.096738
     38 H18         1.5970    6.5470    4.3850 hn        1 MOL      0.294088
     39 H19         2.2680    6.3700    2.9560 hn        1 MOL      0.294088
     40 H20         2.4740    7.7250    3.8360 hn        1 MOL      0.294088
     41 N4         -3.6350    3.9120   -0.9390 n         1 MOL     -0.163292
     42 C13        -4.6700    3.7190   -1.9740 c3        1 MOL     -0.010090
     43 C14        -5.8860    2.9820   -1.5160 c         1 MOL      0.397099
     44 O6         -6.8830    2.8870   -2.2410 o         1 MOL     -0.556126
     45 C15        -4.1340    3.0050   -3.2070 c3        1 MOL     -0.270414
     46 C16        -2.6420    2.8000   -3.2970 c         1 MOL      0.733564
     47 O7         -2.1810    1.7170   -2.8810 o         1 MOL     -0.675512
     48 O8         -1.8400    3.6180   -3.7570 o         1 MOL     -0.675512
     49 H21        -2.8690    3.2510   -0.9230 hn        1 MOL      0.189004
     50 H22        -5.0330    4.6580   -2.3970 h1        1 MOL      0.106340
     51 H23        -4.4780    3.5130   -4.1020 hc        1 MOL      0.088976
     52 H24        -4.7310    2.1020   -3.3540 hc        1 MOL      0.088976
     53 N5         -5.8420    2.3680   -0.3560 n         1 MOL     -0.060104
     54 C17        -6.9990    1.6750    0.3390 c3        1 MOL     -0.309787
     55 C18        -7.4030    0.3430   -0.3770 c         1 MOL      0.576219
     56 O9         -8.4930   -0.0840   -0.1440 o         1 MOL     -0.606585
     57 H25        -4.9850    2.4590    0.1700 hn        1 MOL      0.071063
     58 H26        -7.8630    2.3300    0.4700 h1        1 MOL      0.146500
     59 H27        -6.5540    1.3320    1.2790 h1        1 MOL      0.146500
     60 N6         -6.6160   -0.2040   -1.2450 n         1 MOL     -0.178059
     61 C19        -6.8610   -1.4080   -2.0700 c3        1 MOL     -0.059679
     62 C20        -6.9540   -2.6460   -1.1840 c         1 MOL      0.484192
     63 O10        -7.1560   -3.7640   -1.6430 o         1 MOL     -0.532033
     64 C21        -5.8390   -1.5800   -3.1640 c3        1 MOL     -0.155076
     65 C22        -4.3940   -1.5210   -2.8420 c         1 MOL      0.847559
     66 O11        -3.5890   -0.8360   -3.5600 o         1 MOL     -0.789918
     67 O12        -3.9400   -2.0820   -1.7800 o         1 MOL     -0.789918
     68 H28        -5.7570    0.3160   -1.3660 hn        1 MOL      0.137669
     69 H29        -7.8670   -1.3910   -2.4850 h1        1 MOL      0.106438
     70 H30        -5.9670   -0.7700   -3.8810 hc        1 MOL      0.052035
     71 H31        -5.9910   -2.5620   -3.6250 hc        1 MOL      0.052035
     72 N7         -6.7800   -2.4700    0.1690 n         1 MOL     -0.300052
     73 C23        -6.7930   -3.5170    1.1760 c3        1 MOL     -0.162946
     74 C24        -5.4620   -4.2890    1.2660 c         1 MOL      0.608545
     75 O13        -5.3770   -5.3270    1.8600 o         1 MOL     -0.568791
     76 H32        -6.3980   -1.5680    0.4240 hn        1 MOL      0.336072
     77 H33        -7.6110   -4.2290    1.0280 h1        1 MOL      0.093443
     78 H34        -6.9220   -3.0660    2.1560 h1        1 MOL      0.093443
     79 N8         -4.3460   -3.7490    0.6070 n         1 MOL     -0.363568
     80 C25        -3.0280   -4.4040    0.5820 c3        1 MOL     -0.150349
     81 C26        -1.8640   -3.4210    0.8870 c         1 MOL      0.642931
     82 O14        -1.6900   -2.3930    0.2090 o         1 MOL     -0.616876
     83 C27        -2.7340   -5.2280   -0.7410 c3        1 MOL      0.524228
     84 C28        -3.3130   -6.6960   -0.7040 c3        1 MOL     -0.481999
     85 O15        -3.2580   -4.6220   -1.8760 oh        1 MOL     -0.667931
     86 H35        -4.4710   -2.8550    0.1520 hn        1 MOL      0.238846
     87 H36        -3.0150   -5.1890    1.3360 h1        1 MOL      0.092522
     88 H37        -1.6500   -5.2890   -0.8010 h1        1 MOL     -0.077528
     89 H38        -3.4200   -3.6960   -1.7050 ho        1 MOL      0.447905
     90 H39        -4.3930   -6.7720   -0.7970 hc        1 MOL      0.122875
     91 H40        -2.9510   -7.2730   -1.5500 hc        1 MOL      0.122875
     92 H41        -2.9710   -7.1170    0.2490 hc        1 MOL      0.122875
     93 N9         -1.0080   -3.7710    1.8430 n         1 MOL     -0.591107
     94 C29         0.3090   -3.1520    1.9140 c3        1 MOL      0.010894
     95 C30         1.5320   -3.7830    1.1180 c         1 MOL      0.508793
     96 O16         1.7350   -4.9830    1.1640 o         1 MOL     -0.548699
     97 C31         0.5170   -2.9160    3.4700 c3        1 MOL      0.245466
     98 C32        -0.5250   -2.0230    4.1340 c3        1 MOL      0.063547
     99 C33         1.9390   -2.3260    3.7530 c3        1 MOL     -0.455532
    100 C34        -0.5980   -2.0910    5.6870 c3        1 MOL     -0.112192
    101 H42        -1.1180   -4.6940    2.2260 hn        1 MOL      0.313692
    102 H43         0.2400   -2.1290    1.5450 h1        1 MOL      0.114481
    103 H44         0.5080   -3.8930    3.9550 hc        1 MOL     -0.019061
    104 H45        -1.5250   -2.4020    3.9300 hc        1 MOL     -0.010424
    105 H46        -0.3940   -1.0520    3.6510 hc        1 MOL     -0.010424
    106 H47         2.6300   -3.0170    3.2620 hc        1 MOL      0.086561
    107 H48         2.0050   -1.3050    3.3670 hc        1 MOL      0.086561
    108 H49         2.2130   -2.3900    4.8010 hc        1 MOL      0.086561
    109 H50        -1.3420   -1.4960    6.2120 hc        1 MOL      0.025588
    110 H51        -0.6400   -3.1290    6.0160 hc        1 MOL      0.025588
    111 H52         0.3490   -1.7290    6.0620 hc        1 MOL      0.025588
    112 N10         2.2640   -2.8870    0.4300 n         1 MOL     -0.148089
    113 C35         3.4810   -3.2690   -0.3220 c3        1 MOL      0.029383
    114 C36         4.7620   -2.8400    0.2730 c         1 MOL      0.344768
    115 O17         4.7720   -2.0630    1.2280 o         1 MOL     -0.402575
    116 C37         3.3730   -2.6250   -1.7050 c3        1 MOL      0.259937
    117 C38         2.1370   -3.0900   -2.5390 c3        1 MOL     -0.561512
    118 O18         3.2150   -1.2120   -1.5330 oh        1 MOL     -0.602610
    119 H53         1.9480   -1.9360    0.3600 hn        1 MOL      0.226169
    120 H54         3.5420   -4.3520   -0.3890 h1        1 MOL      0.050346
    121 H55         4.3570   -2.7010   -2.1690 h1        1 MOL      0.016622
    122 H56         2.2720   -1.0010   -1.5750 ho        1 MOL      0.401117
    123 H57         2.4340   -4.0210   -3.0260 hc        1 MOL      0.157000
    124 H58         1.2560   -3.2090   -1.9040 hc        1 MOL      0.157000
    125 H59         1.8960   -2.3270   -3.2780 hc        1 MOL      0.157000
    126 N11         5.9480   -3.2790   -0.2440 n         1 MOL     -0.275641
    127 C39         7.2960   -2.9800    0.2530 c3        1 MOL     -0.056730
    128 C40         7.5360   -1.5150    0.1730 c         1 MOL      0.398471
    129 O19         7.9660   -0.9480    1.1710 o         1 MOL     -0.499984
    130 C41         8.4100   -3.7100   -0.5230 c3        1 MOL      0.141765
    131 C42         8.6010   -5.1590   -0.0500 c3        1 MOL     -0.245073
    132 O20         7.9690   -3.7180   -1.8830 oh        1 MOL     -0.639199
    133 H60         5.9030   -3.9100   -1.0300 hn        1 MOL      0.260743
    134 H61         7.2790   -3.1640    1.3320 h1        1 MOL      0.132686
    135 H62         9.3290   -3.1400   -0.4210 h1        1 MOL      0.094618
    136 H63         8.6600   -4.1520   -2.3810 ho        1 MOL      0.428102
    137 H64         7.8140   -5.8470   -0.3690 hc        1 MOL      0.080210
    138 H65         9.6010   -5.5390   -0.2660 hc        1 MOL      0.080210
    139 H66         8.5480   -5.1340    1.0380 hc        1 MOL      0.080210
    140 N12         7.2130   -0.9380   -0.9760 n         1 MOL     -0.251360
    141 C43         7.2690    0.5550   -1.1780 c3        1 MOL     -0.232780
    142 C44         6.2920    1.2790   -0.2220 c         1 MOL      0.476670
    143 O21         6.5700    2.3740    0.1290 o         1 MOL     -0.532927
    144 C45         7.0280    0.8700   -2.6880 c3        1 MOL      0.011784
    145 C46         7.5800    2.1960   -3.1270 c3        1 MOL      0.105455
    146 C47         7.1420    2.6280   -4.5120 c3        1 MOL     -0.085645
    147 C48         7.9560    3.7820   -5.0680 c3        1 MOL      0.049551
    148 N13         7.2410    4.5450   -6.1460 n4        1 MOL     -0.165538
    149 H67         6.9470   -1.4950   -1.7780 hn        1 MOL      0.251256
    150 H68         8.3110    0.8160   -1.0010 h1        1 MOL      0.148776
    151 H69         5.9720    0.9830   -2.9410 hc        1 MOL      0.019120
    152 H70         7.4460    0.0840   -3.3130 hc        1 MOL      0.019120
    153 H71         8.6700    2.1500   -3.0430 hc        1 MOL      0.000527
    154 H72         7.2810    2.9610   -2.4140 hc        1 MOL      0.000527
    155 H73         6.1220    2.9890   -4.3750 hc        1 MOL      0.050811
    156 H74         7.1750    1.8110   -5.2190 hc        1 MOL      0.050811
    157 H75         8.9180    3.4990   -5.4870 hx        1 MOL      0.063629
    158 H76         8.0460    4.4910   -4.2400 hx        1 MOL      0.063629
    159 H77         7.8630    5.1870   -6.6170 hn        1 MOL      0.241992
    160 H78         6.7610    4.0070   -6.8550 hn        1 MOL      0.241992
    161 H79         6.4390    5.0390   -5.8040 hn        1 MOL      0.241992
    162 N14         5.2060    0.6600    0.3410 n         1 MOL      0.072244
    163 C49         4.3300    1.4370    1.2670 c3        1 MOL     -0.421667
    164 C50         4.9150    1.2970    2.7210 c         1 MOL      0.597625
    165 O22         4.8280    2.2750    3.4540 o         1 MOL     -0.580496
    166 C51         2.8370    0.9280    1.1380 c3        1 MOL      0.237542
    167 C52         2.0920    1.4540   -0.1270 c3        1 MOL     -0.085907
    168 C53         0.7620    0.7900   -0.4380 c         1 MOL      0.847959
    169 O23         0.6810   -0.4480   -0.4360 o         1 MOL     -0.794203
    170 O24        -0.2900    1.4600   -0.6550 o         1 MOL     -0.794203
    171 H80         4.8390   -0.2380    0.0660 hn        1 MOL      0.081746
    172 H81         4.4020    2.4970    1.0340 h1        1 MOL      0.156100
    173 H82         2.2720    1.3380    1.9740 hc        1 MOL     -0.040962
    174 H83         2.8330   -0.1660    1.1430 hc        1 MOL     -0.040962
    175 H84         2.8040    1.2520   -0.9280 hc        1 MOL     -0.017801
    176 H85         1.9520    2.5320   -0.0390 hc        1 MOL     -0.017801
    177 N15         5.5660    0.1460    2.9610 n         1 MOL     -0.200135
    178 C54         6.2180   -0.0200    4.2430 c3        1 MOL     -0.270849
    179 H86         5.9840   -1.0060    4.6430 h1        1 MOL      0.105474
    180 H87         7.2970    0.0730    4.1180 h1        1 MOL      0.105474
    181 H88         5.8630    0.7460    4.9330 h1        1 MOL      0.105474
    182 H89         5.5600   -0.5900    2.2740 hn        1 MOL      0.204873
    183 Ca1        -1.8110   -0.4390   -1.5850 Ca        1 MOL      1.704486
    184 O25        -1.0960   -2.6500   -2.8370 oh        1 MOL     -0.821481
    185 H90        -1.7940   -3.2560   -3.0920 ho        1 MOL      0.393717
    186 H91        -0.3690   -2.8810   -3.4120 ho        1 MOL      0.393717
    187 O26         0.3020    0.1260   -3.2630 oh        1 MOL     -0.821481
    188 H92         0.0180    1.0300   -3.0890 ho        1 MOL      0.393717
    189 H93         0.0900   -0.0260   -4.1830 ho        1 MOL      0.393717
@<TRIPOS>BOND
     1    1    2 1   
     2    1    4 1   
     3    1    5 1   
     4    1    6 1   
     5    2    3 2   
     6    2    7 1   
     7    7    8 1   
     8    7   15 1   
     9    8    9 1   
    10    8   11 1   
    11    8   16 1   
    12    9   10 2   
    13    9   19 1   
    14   11   12 1   
    15   11   17 1   
    16   11   18 1   
    17   12   13 1   
    18   12   14 1   
    19   19   20 1   
    20   19   28 1   
    21   20   21 1   
    22   20   23 1   
    23   20   29 1   
    24   21   22 2   
    25   21   41 1   
    26   23   24 1   
    27   23   30 1   
    28   23   31 1   
    29   24   25 1   
    30   24   32 1   
    31   24   33 1   
    32   25   26 1   
    33   25   34 1   
    34   25   35 1   
    35   26   27 1   
    36   26   36 1   
    37   26   37 1   
    38   27   38 1   
    39   27   39 1   
    40   27   40 1   
    41   41   42 1   
    42   41   49 1   
    43   42   43 1   
    44   42   45 1   
    45   42   50 1   
    46   43   44 2   
    47   43   53 1   
    48   45   46 1   
    49   45   51 1   
    50   45   52 1   
    51   46   47 1   
    52   46   48 1   
    53   53   54 1   
    54   53   57 1   
    55   54   55 1   
    56   54   58 1   
    57   54   59 1   
    58   55   56 2   
    59   55   60 1   
    60   60   61 1   
    61   60   68 1   
    62   61   62 1   
    63   61   64 1   
    64   61   69 1   
    65   62   63 2   
    66   62   72 1   
    67   64   65 1   
    68   64   70 1   
    69   64   71 1   
    70   65   66 1   
    71   65   67 1   
    72   72   73 1   
    73   72   76 1   
    74   73   74 1   
    75   73   77 1   
    76   73   78 1   
    77   74   75 2   
    78   74   79 1   
    79   79   80 1   
    80   79   86 1   
    81   80   81 1   
    82   80   83 1   
    83   80   87 1   
    84   81   82 2   
    85   81   93 1   
    86   83   84 1   
    87   83   85 1   
    88   83   88 1   
    89   84   90 1   
    90   84   91 1   
    91   84   92 1   
    92   85   89 1   
    93   93   94 1   
    94   93  101 1   
    95   94   95 1   
    96   94   97 1   
    97   94  102 1   
    98   95   96 2   
    99   95  112 1   
   100   97   98 1   
   101   97   99 1   
   102   97  103 1   
   103   98  100 1   
   104   98  104 1   
   105   98  105 1   
   106   99  106 1   
   107   99  107 1   
   108   99  108 1   
   109  100  109 1   
   110  100  110 1   
   111  100  111 1   
   112  112  113 1   
   113  112  119 1   
   114  113  114 1   
   115  113  116 1   
   116  113  120 1   
   117  114  115 2   
   118  114  126 1   
   119  116  117 1   
   120  116  118 1   
   121  116  121 1   
   122  117  123 1   
   123  117  124 1   
   124  117  125 1   
   125  118  122 1   
   126  126  127 1   
   127  126  133 1   
   128  127  128 1   
   129  127  130 1   
   130  127  134 1   
   131  128  129 2   
   132  128  140 1   
   133  130  131 1   
   134  130  132 1   
   135  130  135 1   
   136  131  137 1   
   137  131  138 1   
   138  131  139 1   
   139  132  136 1   
   140  140  141 1   
   141  140  149 1   
   142  141  142 1   
   143  141  144 1   
   144  141  150 1   
   145  142  143 2   
   146  142  162 1   
   147  144  145 1   
   148  144  151 1   
   149  144  152 1   
   150  145  146 1   
   151  145  153 1   
   152  145  154 1   
   153  146  147 1   
   154  146  155 1   
   155  146  156 1   
   156  147  148 1   
   157  147  157 1   
   158  147  158 1   
   159  148  159 1   
   160  148  160 1   
   161  148  161 1   
   162  162  163 1   
   163  162  171 1   
   164  163  164 1   
   165  163  166 1   
   166  163  172 1   
   167  164  165 2   
   168  164  177 1   
   169  166  167 1   
   170  166  173 1   
   171  166  174 1   
   172  167  168 1   
   173  167  175 1   
   174  167  176 1   
   175  168  169 1   
   176  168  170 1   
   177  177  178 1   
   178  177  182 1   
   179  178  179 1   
   180  178  180 1   
   181  178  181 1   
   182  184  185 1   
   183  184  186 1   
   184  187  188 1   
   185  187  189 1   
@<TRIPOS>SUBSTRUCTURE
     1 MOL         1 TEMP              0 ****  ****    0 ROOT
