@<TRIPOS>MOLECULE
MOL
  186   183     1     0     0
SMALL
resp


@<TRIPOS>ATOM
      1 C1          0.3310   -1.8230    6.4530 c3        1 MOL     -0.359407
      2 C2          0.7120   -1.8750    4.9960 c         1 MOL      0.896400
      3 O1         -0.0990   -2.2700    4.2100 o         1 MOL     -0.664243
      4 H1         -0.2460   -0.9190    6.6450 hc        1 MOL      0.074995
      5 H2         -0.2700   -2.6970    6.7040 hc        1 MOL      0.074995
      6 H3          1.2340   -1.8140    7.0650 hc        1 MOL      0.074995
      7 N1          1.8880   -1.4590    4.6220 n         1 MOL     -0.747125
      8 C3          2.4370   -1.4240    3.2410 c3        1 MOL      0.410945
      9 C4          2.8450   -2.8500    2.8660 c         1 MOL      0.432008
     10 O2          3.4470   -3.6050    3.6580 o         1 MOL     -0.568173
     11 C5          3.6760   -0.4820    3.1920 c3        1 MOL     -0.282452
     12 C6          4.3960   -0.6430    1.8850 c         1 MOL      0.864443
     13 O3          3.6950   -0.7080    0.8320 o         1 MOL     -0.729175
     14 O4          5.6480   -0.6660    1.9200 o         1 MOL     -0.729175
     15 H4          2.5070   -0.9920    5.2730 hn        1 MOL      0.321261
     16 H5          1.6890   -1.1530    2.4890 h1        1 MOL     -0.028707
     17 H6          4.3140   -0.7930    4.0130 hc        1 MOL      0.029828
     18 H7          3.3040    0.5400    3.3250 hc        1 MOL      0.029828
     19 N2          2.4250   -3.2450    1.6410 n         1 MOL     -0.062419
     20 C7          2.5380   -4.6320    1.1580 c3        1 MOL     -0.150896
     21 C8          3.7570   -4.6640    0.1040 c         1 MOL      0.679048
     22 O5          4.7400   -5.3580    0.2840 o         1 MOL     -0.613734
     23 C9          1.2640   -5.1780    0.6130 c3        1 MOL      0.174842
     24 C10         0.0790   -4.9290    1.5740 c3        1 MOL      0.376726
     25 C11         1.4410   -6.7140    0.3070 c3        1 MOL     -0.355158
     26 C12        -1.1950   -5.5520    1.1500 c3        1 MOL     -0.145455
     27 H8          1.8080   -2.6660    1.0810 hn        1 MOL     -0.103679
     28 H9          2.9600   -5.2820    1.9380 h1        1 MOL      0.072950
     29 H10         0.9850   -4.6360   -0.2890 hc        1 MOL      0.037367
     30 H11         0.0210   -3.8410    1.5120 hc        1 MOL     -0.095477
     31 H12         0.3540   -5.3230    2.5450 hc        1 MOL     -0.095477
     32 H13         1.5230   -7.2800    1.2400 hc        1 MOL      0.064501
     33 H14         0.7200   -7.1650   -0.3600 hc        1 MOL      0.064501
     34 H15         2.4580   -6.8440   -0.0750 hc        1 MOL      0.064501
     35 H16        -1.4270   -5.3930    0.1020 hc        1 MOL      0.013129
     36 H17        -1.1620   -6.6100    1.4380 hc        1 MOL      0.013129
     37 H18        -1.9920   -5.1140    1.7460 hc        1 MOL      0.013129
     38 N3          3.7180   -3.9380   -1.0320 n         1 MOL     -0.590931
     39 C13         4.6810   -4.0720   -2.1150 c3        1 MOL      0.247809
     40 C14         6.0470   -3.4420   -1.8610 c         1 MOL      0.365147
     41 O6          7.0310   -3.6980   -2.5680 o         1 MOL     -0.554271
     42 C15         4.1280   -3.6920   -3.5150 c3        1 MOL     -0.403413
     43 C16         3.2640   -2.3440   -3.5620 c         1 MOL      0.798935
     44 O7          2.2970   -2.2240   -4.3360 o         1 MOL     -0.705892
     45 O8          3.2840   -1.5380   -2.6340 o         1 MOL     -0.705892
     46 H19         2.9210   -3.3250   -1.1450 hn        1 MOL      0.375183
     47 H20         4.8940   -5.1440   -2.1790 h1        1 MOL      0.046012
     48 H21         3.3870   -4.4160   -3.8380 hc        1 MOL      0.089664
     49 H22         4.9290   -3.7280   -4.2540 hc        1 MOL      0.089664
     50 N4          6.1260   -2.6310   -0.7610 n         1 MOL      0.029259
     51 C17         7.3840   -2.1960   -0.2510 c3        1 MOL     -0.412559
     52 C18         7.7880   -0.8500   -0.6960 c         1 MOL      0.653465
     53 O9          8.9060   -0.4720   -0.4420 o         1 MOL     -0.628911
     54 H23         5.3150   -2.4570   -0.1950 hn        1 MOL      0.108966
     55 H24         8.1950   -2.8380   -0.5800 h1        1 MOL      0.155072
     56 H25         7.3400   -2.2800    0.8370 h1        1 MOL      0.155072
     57 N5          6.9300   -0.0440   -1.3690 n         1 MOL     -0.348392
     58 C19         7.2160    1.3680   -1.5650 c3        1 MOL      0.064146
     59 C20         6.9870    2.2890   -0.3930 c         1 MOL      0.329166
     60 O10         7.1550    3.5210   -0.4690 o         1 MOL     -0.536667
     61 C21         6.4200    1.8360   -2.7320 c3        1 MOL     -0.051462
     62 C22         4.8880    1.7320   -2.5370 c         1 MOL      0.684105
     63 O11         4.2090    1.5190   -3.5280 o         1 MOL     -0.688410
     64 O12         4.3880    1.6480   -1.3760 o         1 MOL     -0.688410
     65 H26         5.9940   -0.4140   -1.4460 hn        1 MOL      0.133853
     66 H27         8.2420    1.4020   -1.9130 h1        1 MOL      0.076548
     67 H28         6.7790    1.3480   -3.6400 hc        1 MOL      0.003875
     68 H29         6.7920    2.8470   -2.8810 hc        1 MOL      0.003875
     69 N6          6.5410    1.7050    0.7390 n         1 MOL     -0.164010
     70 C23         6.3240    2.4930    1.9560 c3        1 MOL     -0.140613
     71 C24         5.1980    3.5550    1.9590 c         1 MOL      0.556888
     72 O13         5.3190    4.4340    2.7220 o         1 MOL     -0.588501
     73 H30         6.4780    0.6960    0.7750 hn        1 MOL      0.265224
     74 H31         7.2840    2.9980    2.1220 h1        1 MOL      0.074388
     75 H32         6.2060    1.8070    2.7960 h1        1 MOL      0.074388
     76 N7          4.1130    3.4070    1.1610 n         1 MOL     -0.168288
     77 C25         2.9020    4.1850    1.2030 c3        1 MOL     -0.032554
     78 C26         1.7290    3.2150    1.2490 c         1 MOL      0.523147
     79 O14         1.8770    2.1270    0.7160 o         1 MOL     -0.622204
     80 C27         2.8740    5.1950    0.0410 c3        1 MOL      0.022057
     81 C28         3.7930    6.4760    0.2070 c3        1 MOL     -0.251666
     82 C29         4.1520    7.1240   -1.1810 c         1 MOL      0.772063
     83 N8          5.1270    7.9900   -1.1850 n         1 MOL     -0.873410
     84 O15         3.4960    6.9210   -2.1870 o         1 MOL     -0.579128
     85 H33         4.0390    2.6610    0.4780 hn        1 MOL      0.097974
     86 H34         2.9260    4.7770    2.1230 h1        1 MOL      0.037830
     87 H35         1.8880    5.6130   -0.1620 hc        1 MOL      0.028144
     88 H36         3.1820    4.7420   -0.9020 hc        1 MOL      0.028144
     89 H37         4.7300    6.1900    0.6730 hc        1 MOL      0.060430
     90 H38         3.3390    7.2090    0.8640 hc        1 MOL      0.060430
     91 H39         5.7200    8.1080   -0.3730 hn        1 MOL      0.370046
     92 H40         5.4160    8.4570   -2.0360 hn        1 MOL      0.370046
     93 N9          0.5730    3.5680    1.8550 n         1 MOL     -0.349218
     94 C30        -0.5900    2.6840    2.0010 c3        1 MOL      0.096635
     95 C31        -1.7590    3.0870    1.0760 c         1 MOL      0.325705
     96 O16        -2.3520    4.1450    1.1520 o         1 MOL     -0.528082
     97 C32        -0.9470    2.6720    3.5550 c3        1 MOL      0.379857
     98 C33        -1.9900    1.6780    3.8670 c3        1 MOL     -0.368502
     99 C34         0.2480    2.4460    4.5200 c3        1 MOL     -0.368502
    100 H41         0.5370    4.4860    2.2680 hn        1 MOL      0.247256
    101 H42        -0.3710    1.6280    1.8360 h1        1 MOL      0.086357
    102 H43        -1.2920    3.6770    3.7810 hc        1 MOL     -0.086916
    103 H44        -1.6580    0.6480    3.7910 hc        1 MOL      0.075839
    104 H45        -2.3580    1.7730    4.8880 hc        1 MOL      0.075839
    105 H46        -2.8280    1.8460    3.1920 hc        1 MOL      0.075839
    106 H47         0.9800    3.2350    4.3380 hc        1 MOL      0.075839
    107 H48        -0.0530    2.4040    5.5710 hc        1 MOL      0.075839
    108 H49         0.6120    1.4720    4.2220 hc        1 MOL      0.075839
    109 N10        -1.8720    2.1940    0.0590 n         1 MOL     -0.247537
    110 C35        -2.9380    2.2840   -0.9890 c3        1 MOL      0.280614
    111 C36        -4.3220    1.8940   -0.4570 c         1 MOL      0.324936
    112 O17        -4.3640    1.2730    0.5800 o         1 MOL     -0.315951
    113 C37        -2.4810    1.6380   -2.2930 c3        1 MOL     -0.667467
    114 C38        -3.3630    1.7660   -3.4770 c         1 MOL      0.743434
    115 N11        -4.0020    2.8840   -3.6520 n         1 MOL     -0.782359
    116 O18        -3.4660    0.9140   -4.3030 o         1 MOL     -0.512982
    117 H50        -1.3130    1.3630    0.1440 hn        1 MOL      0.188199
    118 H51        -3.1080    3.3130   -1.2830 h1        1 MOL     -0.017145
    119 H52        -2.3360    0.5990   -2.0170 hc        1 MOL      0.230208
    120 H53        -1.5510    2.1390   -2.5770 hc        1 MOL      0.230208
    121 H54        -3.7400    3.6500   -3.0560 hn        1 MOL      0.352927
    122 H55        -4.6170    2.9510   -4.4480 hn        1 MOL      0.352927
    123 N12        -5.4050    2.0710   -1.1580 n         1 MOL     -0.409488
    124 C39        -6.6870    1.7460   -0.5660 c3        1 MOL      0.110032
    125 C40        -6.9270    0.2820   -0.4070 c         1 MOL      0.602664
    126 O19        -7.1990   -0.1830    0.6850 o         1 MOL     -0.503559
    127 C41        -7.8200    2.3800   -1.3840 c3        1 MOL     -0.068888
    128 C42        -9.2140    2.2050   -0.8220 ca        1 MOL     -0.014781
    129 C43        -9.5310    2.9480    0.3650 ca        1 MOL     -0.158837
    130 C44       -10.1810    1.3310   -1.3520 ca        1 MOL     -0.158837
    131 C45       -10.6920    2.6780    1.0910 ca        1 MOL     -0.262917
    132 C46       -11.3160    0.9600   -0.6300 ca        1 MOL     -0.262917
    133 C47       -11.5370    1.6180    0.6110 ca        1 MOL      0.358476
    134 O20       -12.6640    1.3380    1.3260 oh        1 MOL     -0.523431
    135 H56        -5.2800    2.6790   -1.9620 hn        1 MOL      0.205784
    136 H57        -6.7190    2.1120    0.4630 h1        1 MOL      0.067804
    137 H58        -7.8550    2.0590   -2.4250 hc        1 MOL      0.034298
    138 H59        -7.7060    3.4560   -1.3650 hc        1 MOL      0.034298
    139 H60        -8.8360    3.6590    0.7860 ha        1 MOL      0.141684
    140 H61       -10.0100    0.8230   -2.2900 ha        1 MOL      0.141684
    141 H62       -10.9170    3.2470    1.9820 ha        1 MOL      0.154003
    142 H63       -12.0050    0.2070   -0.9910 ha        1 MOL      0.154003
    143 H64       -13.1610    0.6070    0.9640 ho        1 MOL      0.369725
    144 N13        -6.5430   -0.4800   -1.4420 n         1 MOL     -0.475202
    145 C48        -6.5830   -1.9500   -1.4130 c3        1 MOL     -0.046648
    146 C49        -5.8020   -2.5650   -0.2080 c         1 MOL      0.430946
    147 O21        -6.3010   -3.4350    0.5120 o         1 MOL     -0.541571
    148 C50        -6.0150   -2.5510   -2.7410 c3        1 MOL     -0.113140
    149 C51        -4.5050   -2.6430   -2.9820 c3        1 MOL     -0.239965
    150 C52        -4.1990   -3.0080   -4.4330 c         1 MOL      0.750439
    151 O22        -5.0670   -3.1130   -5.2730 o         1 MOL     -0.742157
    152 O23        -3.0240   -3.3310   -4.6660 o         1 MOL     -0.742157
    153 H65        -6.3630   -0.0080   -2.3160 hn        1 MOL      0.304529
    154 H66        -7.6210   -2.1970   -1.2040 h1        1 MOL      0.051009
    155 H67        -6.5650   -2.1260   -3.5810 hc        1 MOL      0.052475
    156 H68        -6.3770   -3.5810   -2.6840 hc        1 MOL      0.052475
    157 H69        -4.1970   -3.5380   -2.4340 hc        1 MOL      0.080862
    158 H70        -4.1300   -1.6700   -2.6700 hc        1 MOL      0.080862
    159 N14        -4.6240   -2.0710    0.1210 n         1 MOL     -0.160392
    160 C53        -3.7630   -2.4570    1.2530 c3        1 MOL     -0.238086
    161 C54        -4.3060   -1.9450    2.6340 c         1 MOL      0.433875
    162 O24        -4.1800   -2.5820    3.7290 o         1 MOL     -0.581497
    163 C55        -2.3240   -1.8750    1.1500 c3        1 MOL      0.196065
    164 C56        -1.5690   -2.0630   -0.2070 c3        1 MOL     -0.170932
    165 C57        -0.1510   -1.4030   -0.1510 c         1 MOL      0.899589
    166 O25         0.8520   -1.9810   -0.6260 o         1 MOL     -0.739109
    167 O26        -0.1080   -0.1770    0.0690 o         1 MOL     -0.739109
    168 H71        -4.2330   -1.3670   -0.4830 hn        1 MOL      0.336794
    169 H72        -3.7320   -3.5440    1.2370 h1        1 MOL      0.146381
    170 H73        -1.7210   -2.2300    1.9820 hc        1 MOL     -0.006875
    171 H74        -2.2690   -0.8070    1.3320 hc        1 MOL     -0.006875
    172 H75        -2.1650   -1.6020   -0.9960 hc        1 MOL     -0.029219
    173 H76        -1.4310   -3.1260   -0.3740 hc        1 MOL     -0.029219
    174 N15        -5.0650   -0.9030    2.6200 n         1 MOL      0.142762
    175 C58        -5.7830   -0.3760    3.8240 c3        1 MOL     -0.323898
    176 H77        -6.1650    0.6220    3.6100 h1        1 MOL      0.109469
    177 H78        -6.6130   -1.0380    4.0710 h1        1 MOL      0.109469
    178 H79        -5.0930   -0.3280    4.6660 h1        1 MOL      0.109469
    179 H80        -5.0940   -0.4100    1.7400 hn        1 MOL     -0.129884
    180 Ca1         2.1830    0.2590   -1.0050 Ca        1 MOL      1.729515
    181 O27         0.6430   -0.1130   -3.1590 oh        1 MOL     -0.879968
    182 H81         1.1550   -0.7520   -3.6530 ho        1 MOL      0.417562
    183 H82        -0.2450   -0.1940   -3.5160 ho        1 MOL      0.417562
    184 O28         1.8480    2.6290   -2.2280 oh        1 MOL     -0.879968
    185 H83         2.7690    2.8760   -2.2450 ho        1 MOL      0.417562
    186 H84         1.5680    2.6770   -3.1520 ho        1 MOL      0.417562
@<TRIPOS>BOND
     1    1    2 1   
     2    1    4 1   
     3    1    5 1   
     4    1    6 1   
     5    2    3 2   
     6    2    7 1   
     7    7    8 1   
     8    7   15 1   
     9    8    9 1   
    10    8   11 1   
    11    8   16 1   
    12    9   10 2   
    13    9   19 1   
    14   11   12 1   
    15   11   17 1   
    16   11   18 1   
    17   12   13 1   
    18   12   14 1   
    19   19   20 1   
    20   19   27 1   
    21   20   21 1   
    22   20   23 1   
    23   20   28 1   
    24   21   22 2   
    25   21   38 1   
    26   23   24 1   
    27   23   25 1   
    28   23   29 1   
    29   24   26 1   
    30   24   30 1   
    31   24   31 1   
    32   25   32 1   
    33   25   33 1   
    34   25   34 1   
    35   26   35 1   
    36   26   36 1   
    37   26   37 1   
    38   38   39 1   
    39   38   46 1   
    40   39   40 1   
    41   39   42 1   
    42   39   47 1   
    43   40   41 2   
    44   40   50 1   
    45   42   43 1   
    46   42   48 1   
    47   42   49 1   
    48   43   44 1   
    49   43   45 1   
    50   50   51 1   
    51   50   54 1   
    52   51   52 1   
    53   51   55 1   
    54   51   56 1   
    55   52   53 2   
    56   52   57 1   
    57   57   58 1   
    58   57   65 1   
    59   58   59 1   
    60   58   61 1   
    61   58   66 1   
    62   59   60 2   
    63   59   69 1   
    64   61   62 1   
    65   61   67 1   
    66   61   68 1   
    67   62   63 1   
    68   62   64 1   
    69   69   70 1   
    70   69   73 1   
    71   70   71 1   
    72   70   74 1   
    73   70   75 1   
    74   71   72 2   
    75   71   76 1   
    76   76   77 1   
    77   76   85 1   
    78   77   78 1   
    79   77   80 1   
    80   77   86 1   
    81   78   79 2   
    82   78   93 1   
    83   80   81 1   
    84   80   87 1   
    85   80   88 1   
    86   81   82 1   
    87   81   89 1   
    88   81   90 1   
    89   82   83 1   
    90   82   84 2   
    91   83   91 1   
    92   83   92 1   
    93   93   94 1   
    94   93  100 1   
    95   94   95 1   
    96   94   97 1   
    97   94  101 1   
    98   95   96 2   
    99   95  109 1   
   100   97   98 1   
   101   97   99 1   
   102   97  102 1   
   103   98  103 1   
   104   98  104 1   
   105   98  105 1   
   106   99  106 1   
   107   99  107 1   
   108   99  108 1   
   109  109  110 1   
   110  109  117 1   
   111  110  111 1   
   112  110  113 1   
   113  110  118 1   
   114  111  112 2   
   115  111  123 1   
   116  113  114 1   
   117  113  119 1   
   118  113  120 1   
   119  114  115 1   
   120  114  116 2   
   121  115  121 1   
   122  115  122 1   
   123  123  124 1   
   124  123  135 1   
   125  124  125 1   
   126  124  127 1   
   127  124  136 1   
   128  125  126 2   
   129  125  144 1   
   130  127  128 1   
   131  127  137 1   
   132  127  138 1   
   133  128  129 ar  
   134  128  130 ar  
   135  129  131 ar  
   136  129  139 1   
   137  130  132 ar  
   138  130  140 1   
   139  131  133 ar  
   140  131  141 1   
   141  132  133 ar  
   142  132  142 1   
   143  133  134 1   
   144  134  143 1   
   145  144  145 1   
   146  144  153 1   
   147  145  146 1   
   148  145  148 1   
   149  145  154 1   
   150  146  147 2   
   151  146  159 1   
   152  148  149 1   
   153  148  155 1   
   154  148  156 1   
   155  149  150 1   
   156  149  157 1   
   157  149  158 1   
   158  150  151 1   
   159  150  152 1   
   160  159  160 1   
   161  159  168 1   
   162  160  161 1   
   163  160  163 1   
   164  160  169 1   
   165  161  162 2   
   166  161  174 1   
   167  163  164 1   
   168  163  170 1   
   169  163  171 1   
   170  164  165 1   
   171  164  172 1   
   172  164  173 1   
   173  165  166 1   
   174  165  167 1   
   175  174  175 1   
   176  174  179 1   
   177  175  176 1   
   178  175  177 1   
   179  175  178 1   
   180  181  182 1   
   181  181  183 1   
   182  184  185 1   
   183  184  186 1   
@<TRIPOS>SUBSTRUCTURE
     1 MOL         1 TEMP              0 ****  ****    0 ROOT
