@<TRIPOS>MOLECULE
MOL
  175   173     1     0     0
SMALL
resp


@<TRIPOS>ATOM
      1 C1         -0.2900    4.6920    5.2970 c3        1 MOL     -0.331468
      2 C2         -0.7970    4.5560    3.8990 c         1 MOL      0.775484
      3 O1         -0.1800    4.8740    2.8970 o         1 MOL     -0.604975
      4 H1          0.3260    5.5880    5.3740 hc        1 MOL      0.074507
      5 H2         -1.1330    4.7700    5.9840 hc        1 MOL      0.074507
      6 H3          0.3080    3.8180    5.5540 hc        1 MOL      0.074507
      7 N1         -2.0300    4.1280    3.8250 n         1 MOL     -0.650910
      8 C3         -2.7010    3.6200    2.6050 c3        1 MOL      0.257782
      9 C4         -3.0130    4.7920    1.6780 c         1 MOL      0.540105
     10 O2         -3.7700    5.6650    2.0540 o         1 MOL     -0.586282
     11 C5         -4.0150    2.8310    2.8450 c3        1 MOL     -0.462886
     12 C6         -4.5470    1.9390    1.6520 c         1 MOL      0.878019
     13 O3         -5.4780    1.1410    1.9170 o         1 MOL     -0.718516
     14 O4         -4.0420    2.0010    0.5450 o         1 MOL     -0.718516
     15 H4         -2.6030    3.9610    4.6280 hn        1 MOL      0.333082
     16 H5         -2.0970    2.9870    1.9460 h1        1 MOL     -0.010301
     17 H6         -4.8300    3.5090    3.0800 hc        1 MOL      0.088753
     18 H7         -3.8940    2.1750    3.7140 hc        1 MOL      0.088753
     19 N2         -2.5470    4.6840    0.4180 n         1 MOL     -0.281576
     20 C7         -2.9240    5.6220   -0.6240 c3        1 MOL      0.244384
     21 C8         -3.4460    5.0120   -1.9130 c         1 MOL      0.528377
     22 O5         -3.4420    5.7280   -2.9030 o         1 MOL     -0.565626
     23 C9         -1.7730    6.5990   -0.7470 c3        1 MOL     -0.270227
     24 H8         -1.8880    3.9330    0.2230 hn        1 MOL      0.208728
     25 H9         -3.8240    6.0540   -0.1910 h1        1 MOL      0.010126
     26 H10        -1.9800    7.2870   -1.5650 hc        1 MOL      0.057493
     27 H11        -1.8030    7.2270    0.1410 hc        1 MOL      0.057493
     28 H12        -0.8500    6.0230   -0.7260 hc        1 MOL      0.057493
     29 N3         -3.9890    3.7360   -1.9260 n         1 MOL     -0.502073
     30 C10        -4.6670    3.0430   -3.0210 c3        1 MOL      0.324191
     31 C11        -5.9800    2.3900   -2.6580 c         1 MOL      0.294716
     32 O6         -6.8680    2.3710   -3.4790 o         1 MOL     -0.521354
     33 C12        -3.7680    1.9840   -3.6980 c3        1 MOL     -0.165471
     34 C13        -2.9680    1.1130   -2.7280 c         1 MOL      0.693976
     35 O7         -3.6690    0.6220   -1.7810 o         1 MOL     -0.680112
     36 O8         -1.8040    0.8090   -2.8480 o         1 MOL     -0.680112
     37 H13        -3.9350    3.2200   -1.0580 hn        1 MOL      0.200859
     38 H14        -4.9200    3.6910   -3.8680 h1        1 MOL      0.006279
     39 H15        -3.0450    2.5280   -4.2980 hc        1 MOL      0.027726
     40 H16        -4.3420    1.3540   -4.3710 hc        1 MOL      0.027726
     41 N4         -6.0450    1.7820   -1.4330 n         1 MOL     -0.163586
     42 C14        -7.2270    0.9220   -1.0840 c3        1 MOL     -0.367533
     43 C15        -7.1370   -0.4670   -1.5880 c         1 MOL      0.507320
     44 O9         -8.2740   -1.0080   -1.7120 o         1 MOL     -0.578838
     45 H17        -5.2230    1.6950   -0.8640 hn        1 MOL      0.135539
     46 H18        -8.0550    1.4710   -1.5300 h1        1 MOL      0.167505
     47 H19        -7.2860    0.8140   -0.0040 h1        1 MOL      0.167505
     48 N5         -5.9790   -1.0240   -1.9690 n         1 MOL     -0.090535
     49 C16        -5.9440   -2.4540   -2.4010 c3        1 MOL     -0.287244
     50 C17        -6.3240   -3.4850   -1.3640 c         1 MOL      0.592194
     51 O10        -6.9390   -4.4960   -1.7180 o         1 MOL     -0.564889
     52 C18        -4.5970   -2.8100   -3.0980 c3        1 MOL      0.034101
     53 C19        -3.2730   -2.5880   -2.2850 c         1 MOL      0.377697
     54 N6         -2.1300   -2.9870   -2.9200 n         1 MOL     -0.668746
     55 O11        -3.1730   -2.3210   -1.1210 o         1 MOL     -0.290798
     56 H20        -5.1420   -0.4580   -1.9990 hn        1 MOL      0.189465
     57 H21        -6.7760   -2.5590   -3.0860 h1        1 MOL      0.123870
     58 H22        -4.5270   -2.1770   -3.9830 hc        1 MOL      0.038257
     59 H23        -4.6010   -3.8220   -3.5050 hc        1 MOL      0.038257
     60 H24        -2.1120   -3.2200   -3.8990 hn        1 MOL      0.333857
     61 H25        -1.3130   -2.6700   -2.4140 hn        1 MOL      0.333857
     62 N7         -6.0780   -3.1740   -0.0750 n         1 MOL     -0.322772
     63 C20        -6.2190   -4.1020    1.0240 c3        1 MOL      0.011477
     64 C21        -4.9120   -4.6660    1.6230 c         1 MOL      0.462503
     65 O12        -4.9420   -5.6940    2.3180 o         1 MOL     -0.588656
     66 H26        -5.5520   -2.3320    0.1440 hn        1 MOL      0.227935
     67 H27        -6.9230   -4.9230    0.8320 h1        1 MOL      0.052255
     68 H28        -6.6440   -3.4860    1.8180 h1        1 MOL      0.052255
     69 N8         -3.7320   -4.0830    1.3610 n         1 MOL     -0.048621
     70 C22        -2.3870   -4.5680    1.8110 c3        1 MOL     -0.274468
     71 C23        -1.3900   -3.3730    2.0040 c         1 MOL      0.490626
     72 O13        -1.5550   -2.2940    1.5030 o         1 MOL     -0.410689
     73 C24        -1.7420   -5.5230    0.7310 c3        1 MOL      0.446600
     74 C25        -2.2520   -6.9930    0.6950 c3        1 MOL     -0.446776
     75 O14        -1.9750   -5.0710   -0.5940 oh        1 MOL     -0.573005
     76 H29        -3.6960   -3.2570    0.7830 hn        1 MOL     -0.040653
     77 H30        -2.5460   -5.0820    2.7450 h1        1 MOL      0.136608
     78 H31        -0.6660   -5.6690    0.8080 h1        1 MOL      0.007214
     79 H32        -1.7120   -4.1400   -0.6150 ho        1 MOL      0.329374
     80 H33        -2.1150   -7.5500    1.6230 hc        1 MOL      0.114715
     81 H34        -3.3150   -7.1360    0.5040 hc        1 MOL      0.114715
     82 H35        -1.8210   -7.6170   -0.0970 hc        1 MOL      0.114715
     83 N9         -0.2370   -3.5270    2.7130 n         1 MOL     -0.459867
     84 C26         0.8680   -2.5860    2.6530 c3        1 MOL     -0.011273
     85 C27         1.6110   -2.7980    1.3430 c         1 MOL      0.439475
     86 O15         1.8970   -3.9580    1.0040 o         1 MOL     -0.581196
     87 C28         1.8270   -2.7270    3.8430 c3        1 MOL      0.134787
     88 C29         1.2840   -1.8550    5.0200 c3        1 MOL     -0.039625
     89 C30         3.2570   -2.1600    3.5680 c3        1 MOL     -0.251354
     90 C31         1.8020   -2.3000    6.3820 c3        1 MOL     -0.120756
     91 H36        -0.0780   -4.3810    3.2260 hn        1 MOL      0.253362
     92 H37         0.4460   -1.5750    2.6590 h1        1 MOL     -0.016638
     93 H38         1.9520   -3.7410    4.2420 hc        1 MOL      0.044345
     94 H39         0.1940   -1.8870    4.9960 hc        1 MOL      0.029978
     95 H40         1.5370   -0.7970    4.9010 hc        1 MOL      0.029978
     96 H41         3.2760   -1.0760    3.4510 hc        1 MOL      0.060104
     97 H42         3.7780   -2.4140    4.4920 hc        1 MOL      0.060104
     98 H43         3.7560   -2.7410    2.7950 hc        1 MOL      0.060104
     99 H44         1.2200   -1.9220    7.2270 hc        1 MOL      0.023579
    100 H45         1.8000   -3.3830    6.2880 hc        1 MOL      0.023579
    101 H46         2.8410   -1.9810    6.4580 hc        1 MOL      0.023579
    102 N10         1.9890   -1.7510    0.6170 n         1 MOL     -0.197968
    103 C32         2.8230   -1.7660   -0.6110 c3        1 MOL      0.124897
    104 C33         4.3550   -1.3130   -0.3900 c         1 MOL      0.366540
    105 O16         4.6910   -0.5410    0.4620 o         1 MOL     -0.397037
    106 C34         2.1610   -1.0700   -1.8020 c3        1 MOL     -0.064776
    107 C35         0.7870   -1.6210   -2.1120 c         1 MOL      0.646602
    108 O17        -0.1240   -1.5060   -1.2750 o         1 MOL     -0.657289
    109 O18         0.6020   -2.1230   -3.2310 o         1 MOL     -0.657289
    110 H47         1.6910   -0.8420    0.9470 hn        1 MOL      0.242988
    111 H48         2.8860   -2.8110   -0.9180 h1        1 MOL      0.027379
    112 H49         2.8980   -1.2200   -2.5950 hc        1 MOL     -0.015548
    113 H50         2.0760   -0.0160   -1.5680 hc        1 MOL     -0.015548
    114 N11         5.2700   -1.7360   -1.2680 n         1 MOL     -0.532272
    115 C36         6.6690   -1.2450   -1.1920 c3        1 MOL      0.362847
    116 C37         6.7820    0.3290   -1.3050 c         1 MOL      0.254136
    117 O19         7.4050    0.9040   -0.4300 o         1 MOL     -0.502684
    118 C38         7.5030   -1.9680   -2.2690 c3        1 MOL     -0.313646
    119 C39         8.9830   -1.9400   -1.9370 ca        1 MOL      0.174987
    120 C40         9.8190   -0.9590   -2.4130 ca        1 MOL     -0.208974
    121 C41         9.5410   -3.1030   -1.2980 ca        1 MOL     -0.208974
    122 C42        11.1740   -1.0170   -2.0980 ca        1 MOL     -0.042461
    123 C43        10.9010   -3.1840   -0.9900 ca        1 MOL     -0.042461
    124 C44        11.7370   -2.1180   -1.4170 ca        1 MOL     -0.200057
    125 H51         5.0750   -2.4380   -1.9690 hn        1 MOL      0.315752
    126 H52         7.0780   -1.5650   -0.2360 h1        1 MOL      0.050512
    127 H53         7.3480   -1.6570   -3.2980 hc        1 MOL      0.074350
    128 H54         7.0690   -2.9700   -2.2090 hc        1 MOL      0.074350
    129 H55         9.4150   -0.1830   -3.0330 ha        1 MOL      0.128161
    130 H56         8.8910   -3.9460   -1.1310 ha        1 MOL      0.128161
    131 H57        11.8820   -0.3650   -2.6010 ha        1 MOL      0.093443
    132 H58        11.2560   -4.0840   -0.5090 ha        1 MOL      0.093443
    133 H59        12.7880   -2.1560   -1.1940 ha        1 MOL      0.122796
    134 N12         6.0580    1.0210   -2.1760 n         1 MOL     -0.014364
    135 C45         6.1600    2.5020   -2.1160 c3        1 MOL     -0.004276
    136 C46         5.5300    3.0980   -0.7680 c         1 MOL      0.236446
    137 O20         5.8050    4.3090   -0.4700 o         1 MOL     -0.514691
    138 C47         5.3130    2.9080   -3.3630 c3        1 MOL      0.027318
    139 C48         5.3240    1.7680   -4.3480 c3        1 MOL     -0.156465
    140 C49         5.3030    0.6270   -3.3250 c3        1 MOL     -0.037451
    141 H60         7.1530    2.9050   -2.3070 h1        1 MOL      0.098716
    142 H61         4.3020    3.1020   -3.0170 hc        1 MOL      0.021150
    143 H62         5.7750    3.8060   -3.7820 hc        1 MOL      0.021150
    144 H63         4.4360    1.8070   -4.9850 hc        1 MOL      0.064377
    145 H64         6.2660    1.6910   -4.8850 hc        1 MOL      0.064377
    146 H65         4.2810    0.5870   -2.9610 h1        1 MOL      0.066136
    147 H66         5.6170   -0.2800   -3.8560 h1        1 MOL      0.066136
    148 N13         4.7340    2.3940    0.0300 n         1 MOL      0.058518
    149 C50         4.1190    2.8170    1.2700 c3        1 MOL     -0.326968
    150 C51         4.9000    2.3840    2.5770 c         1 MOL      0.585040
    151 O21         4.8010    3.0420    3.5770 o         1 MOL     -0.566139
    152 C52         2.5900    2.4380    1.3130 c3        1 MOL      0.221007
    153 C53         1.7150    2.5320    0.0730 c3        1 MOL     -0.170453
    154 C54         0.4370    1.7090    0.2490 c         1 MOL      0.603327
    155 O22        -0.6760    2.1220   -0.1670 o         1 MOL     -0.668732
    156 O23         0.4430    0.5760    0.7780 o         1 MOL     -0.668732
    157 H67         4.4520    1.5050   -0.3500 hn        1 MOL      0.113658
    158 H68         4.0790    3.9010    1.2700 h1        1 MOL      0.134914
    159 H69         2.1040    2.9380    2.1470 hc        1 MOL     -0.032098
    160 H70         2.5800    1.3620    1.5100 hc        1 MOL     -0.032098
    161 H71         2.1780    2.2260   -0.8580 hc        1 MOL      0.076143
    162 H72         1.4910    3.5880   -0.0960 hc        1 MOL      0.076143
    163 N14         5.6850    1.3220    2.5190 n         1 MOL     -0.158946
    164 C55         6.5630    0.7680    3.5850 c3        1 MOL     -0.271329
    165 H73         7.2670    1.5330    3.9100 h1        1 MOL      0.104630
    166 H74         5.9530    0.4540    4.4320 h1        1 MOL      0.104630
    167 H75         7.1130   -0.0890    3.1950 h1        1 MOL      0.104630
    168 H76         5.6450    0.7400    1.6920 hn        1 MOL      0.133110
    169 Ca1        -1.9880   -0.1600   -0.1400 Ca        1 MOL      1.619841
    170 O24        -2.0980    0.3350    2.5070 oh        1 MOL     -0.687396
    171 H77        -2.3420    0.4500    3.4260 ho        1 MOL      0.353060
    172 H78        -1.1580    0.2010    2.5230 ho        1 MOL      0.353060
    173 O25        -4.2960   -1.2790    1.1490 oh        1 MOL     -0.687396
    174 H79        -4.7420   -0.4440    0.9740 ho        1 MOL      0.353060
    175 H80        -3.9940   -1.2080    2.0480 ho        1 MOL      0.353060
@<TRIPOS>BOND
     1    1    2 1   
     2    1    4 1   
     3    1    5 1   
     4    1    6 1   
     5    2    3 2   
     6    2    7 1   
     7    7    8 1   
     8    7   15 1   
     9    8    9 1   
    10    8   11 1   
    11    8   16 1   
    12    9   10 2   
    13    9   19 1   
    14   11   12 1   
    15   11   17 1   
    16   11   18 1   
    17   12   13 1   
    18   12   14 1   
    19   19   20 1   
    20   19   24 1   
    21   20   21 1   
    22   20   23 1   
    23   20   25 1   
    24   21   22 2   
    25   21   29 1   
    26   23   26 1   
    27   23   27 1   
    28   23   28 1   
    29   29   30 1   
    30   29   37 1   
    31   30   31 1   
    32   30   33 1   
    33   30   38 1   
    34   31   32 2   
    35   31   41 1   
    36   33   34 1   
    37   33   39 1   
    38   33   40 1   
    39   34   35 1   
    40   34   36 1   
    41   41   42 1   
    42   41   45 1   
    43   42   43 1   
    44   42   46 1   
    45   42   47 1   
    46   43   44 2   
    47   43   48 1   
    48   48   49 1   
    49   48   56 1   
    50   49   50 1   
    51   49   52 1   
    52   49   57 1   
    53   50   51 2   
    54   50   62 1   
    55   52   53 1   
    56   52   58 1   
    57   52   59 1   
    58   53   54 1   
    59   53   55 2   
    60   54   60 1   
    61   54   61 1   
    62   62   63 1   
    63   62   66 1   
    64   63   64 1   
    65   63   67 1   
    66   63   68 1   
    67   64   65 2   
    68   64   69 1   
    69   69   70 1   
    70   69   76 1   
    71   70   71 1   
    72   70   73 1   
    73   70   77 1   
    74   71   72 2   
    75   71   83 1   
    76   73   74 1   
    77   73   75 1   
    78   73   78 1   
    79   74   80 1   
    80   74   81 1   
    81   74   82 1   
    82   75   79 1   
    83   83   84 1   
    84   83   91 1   
    85   84   85 1   
    86   84   87 1   
    87   84   92 1   
    88   85   86 2   
    89   85  102 1   
    90   87   88 1   
    91   87   89 1   
    92   87   93 1   
    93   88   90 1   
    94   88   94 1   
    95   88   95 1   
    96   89   96 1   
    97   89   97 1   
    98   89   98 1   
    99   90   99 1   
   100   90  100 1   
   101   90  101 1   
   102  102  103 1   
   103  102  110 1   
   104  103  104 1   
   105  103  106 1   
   106  103  111 1   
   107  104  105 2   
   108  104  114 1   
   109  106  107 1   
   110  106  112 1   
   111  106  113 1   
   112  107  108 1   
   113  107  109 1   
   114  114  115 1   
   115  114  125 1   
   116  115  116 1   
   117  115  118 1   
   118  115  126 1   
   119  116  117 2   
   120  116  134 1   
   121  118  119 1   
   122  118  127 1   
   123  118  128 1   
   124  119  120 ar  
   125  119  121 ar  
   126  120  122 ar  
   127  120  129 1   
   128  121  123 ar  
   129  121  130 1   
   130  122  124 ar  
   131  122  131 1   
   132  123  124 ar  
   133  123  132 1   
   134  124  133 1   
   135  134  135 1   
   136  134  140 1   
   137  135  136 1   
   138  135  138 1   
   139  135  141 1   
   140  136  137 2   
   141  136  148 1   
   142  138  139 1   
   143  138  142 1   
   144  138  143 1   
   145  139  140 1   
   146  139  144 1   
   147  139  145 1   
   148  140  146 1   
   149  140  147 1   
   150  148  149 1   
   151  148  157 1   
   152  149  150 1   
   153  149  152 1   
   154  149  158 1   
   155  150  151 2   
   156  150  163 1   
   157  152  153 1   
   158  152  159 1   
   159  152  160 1   
   160  153  154 1   
   161  153  161 1   
   162  153  162 1   
   163  154  155 1   
   164  154  156 1   
   165  163  164 1   
   166  163  168 1   
   167  164  165 1   
   168  164  166 1   
   169  164  167 1   
   170  170  171 1   
   171  170  172 1   
   172  173  174 1   
   173  173  175 1   
@<TRIPOS>SUBSTRUCTURE
     1 MOL         1 TEMP              0 ****  ****    0 ROOT
