@<TRIPOS>MOLECULE
MOL
  189   185     1     0     0
SMALL
resp


@<TRIPOS>ATOM
      1 C1         -1.0640    0.5140    7.1820 c3        1 MOL     -0.312631
      2 C2         -0.9600    0.6170    5.6550 c         1 MOL      0.751852
      3 O1          0.0240    1.0650    5.1030 o         1 MOL     -0.616021
      4 H1         -0.0760    0.3260    7.6010 hc        1 MOL      0.082672
      5 H2         -1.4570    1.4480    7.5840 hc        1 MOL      0.082672
      6 H3         -1.7320   -0.3060    7.4460 hc        1 MOL      0.082672
      7 N1         -2.0130    0.2040    4.8920 n         1 MOL     -0.612095
      8 C3         -2.2890    0.4870    3.4400 c3        1 MOL      0.099049
      9 C4         -2.4170    1.9990    3.2580 c         1 MOL      0.516618
     10 O2         -3.3920    2.6270    3.7150 o         1 MOL     -0.525752
     11 C5         -3.5660   -0.2380    2.9850 c3        1 MOL     -0.292561
     12 C6         -3.9660   -0.0420    1.4590 c         1 MOL      0.655195
     13 O3         -5.0220   -0.5680    1.0620 o         1 MOL     -0.647329
     14 O4         -3.2920    0.6620    0.6430 o         1 MOL     -0.647329
     15 H4         -2.7840   -0.2140    5.4050 hn        1 MOL      0.309317
     16 H5         -1.5560   -0.0230    2.8200 h1        1 MOL      0.090257
     17 H6         -4.3900    0.1470    3.5810 hc        1 MOL      0.090354
     18 H7         -3.3870   -1.3090    2.9950 hc        1 MOL      0.090354
     19 N2         -1.4700    2.7130    2.6130 n         1 MOL     -0.123474
     20 C7         -1.5020    4.1600    2.4940 c3        1 MOL     -0.058892
     21 C8         -2.5890    4.7390    1.5550 c         1 MOL      0.434108
     22 O5         -2.6680    5.9300    1.1180 o         1 MOL     -0.573335
     23 C9         -0.0820    4.6090    2.0840 c3        1 MOL     -0.142141
     24 C10         0.3230    4.2250    0.6470 c3        1 MOL     -0.079332
     25 C11         1.7560    4.5320    0.0830 c3        1 MOL      0.015633
     26 C12         1.8900    4.0820   -1.4090 c3        1 MOL      0.056104
     27 N3          1.0480    4.8120   -2.3660 n4        1 MOL     -0.394783
     28 H8         -0.7120    2.2090    2.1770 hn        1 MOL      0.082243
     29 H9         -1.7480    4.5930    3.4710 h1        1 MOL      0.116281
     30 H10         0.6260    4.1910    2.7950 hc        1 MOL      0.058877
     31 H11         0.0200    5.6970    2.1260 hc        1 MOL      0.058877
     32 H12        -0.4120    4.6200   -0.0530 hc        1 MOL      0.104621
     33 H13         0.2710    3.1380    0.5970 hc        1 MOL      0.104621
     34 H14         2.4730    4.1010    0.7700 hc        1 MOL      0.009821
     35 H15         1.8950    5.6140    0.0740 hc        1 MOL      0.009821
     36 H16         1.5670    3.0390   -1.3710 hx        1 MOL      0.018678
     37 H17         2.9250    4.0630   -1.7550 hx        1 MOL      0.018678
     38 H18         1.2150    4.4960   -3.3180 hn        1 MOL      0.312980
     39 H19         0.0650    4.7330   -2.1260 hn        1 MOL      0.312980
     40 H20         1.1920    5.8150   -2.3640 hn        1 MOL      0.312980
     41 N4         -3.4510    3.8830    1.0290 n         1 MOL      0.033480
     42 C13        -4.4060    4.2090   -0.0780 c3        1 MOL     -0.099240
     43 C14        -5.7690    3.4970    0.1580 c         1 MOL      0.503947
     44 O6         -6.7640    4.0120   -0.2800 o         1 MOL     -0.514970
     45 C15        -3.8770    3.6220   -1.4340 c3        1 MOL     -0.081853
     46 C16        -2.3400    3.7490   -1.7180 c         1 MOL      0.704832
     47 O7         -1.8900    4.6500   -2.4700 o         1 MOL     -0.722271
     48 O8         -1.6140    2.7800   -1.4270 o         1 MOL     -0.722271
     49 H21        -3.4210    2.9330    1.3830 hn        1 MOL     -0.247050
     50 H22        -4.7040    5.2620   -0.1390 h1        1 MOL      0.108803
     51 H23        -4.5420    4.0360   -2.2040 hc        1 MOL      0.057744
     52 H24        -4.0700    2.5520   -1.4190 hc        1 MOL      0.057744
     53 N5         -5.8260    2.2910    0.7560 n         1 MOL     -0.377399
     54 C17        -7.0320    1.4470    0.9100 c3        1 MOL     -0.114508
     55 C18        -7.4640    0.8750   -0.4440 c         1 MOL      0.439444
     56 O9         -8.6770    0.8120   -0.7970 o         1 MOL     -0.573432
     57 H25        -4.9270    1.8380    0.8870 hn        1 MOL      0.424659
     58 H26        -7.8890    2.0350    1.2720 h1        1 MOL      0.106598
     59 H27        -7.0000    0.6690    1.6710 h1        1 MOL      0.106598
     60 N6         -6.4800    0.4380   -1.2400 n         1 MOL     -0.107884
     61 C19        -6.7330   -0.2460   -2.5340 c3        1 MOL      0.040661
     62 C20        -6.8260   -1.7960   -2.2950 c         1 MOL      0.426804
     63 O10        -6.9500   -2.5730   -3.2020 o         1 MOL     -0.509902
     64 C21        -5.7200    0.1160   -3.6400 c3        1 MOL     -0.269503
     65 C22        -4.3140   -0.0790   -3.0820 c         1 MOL      0.836136
     66 O11        -3.9770   -1.0670   -2.3650 o         1 MOL     -0.817693
     67 O12        -3.4520    0.8420   -3.2110 o         1 MOL     -0.817693
     68 H28        -5.5840    0.3440   -0.7990 hn        1 MOL      0.020977
     69 H29        -7.7060   -0.0200   -2.9580 h1        1 MOL      0.097045
     70 H30        -5.8190    1.1240   -4.0180 hc        1 MOL      0.076625
     71 H31        -5.8990   -0.6220   -4.4200 hc        1 MOL      0.076625
     72 N7         -6.6890   -2.2630   -1.0300 n         1 MOL     -0.316583
     73 C23        -6.6900   -3.6680   -0.4880 c3        1 MOL     -0.156839
     74 C24        -5.3800   -4.4350   -0.5250 c         1 MOL      0.624378
     75 O13        -5.3670   -5.5850   -0.2280 o         1 MOL     -0.578676
     76 H32        -6.4650   -1.5730   -0.3340 hn        1 MOL      0.265005
     77 H33        -7.4060   -4.1710   -1.1450 h1        1 MOL      0.102372
     78 H34        -7.0980   -3.6640    0.5130 h1        1 MOL      0.102372
     79 N8         -4.2360   -3.7570   -0.8150 n         1 MOL     -0.312009
     80 C25        -2.8990   -4.4390   -0.7870 c3        1 MOL     -0.128699
     81 C26        -1.7270   -3.4790   -0.3130 c         1 MOL      0.605645
     82 O14        -1.7090   -2.2850   -0.6830 o         1 MOL     -0.550735
     83 C27        -2.5560   -5.1430   -2.1300 c3        1 MOL      0.341560
     84 C28        -3.4890   -6.2980   -2.4930 c3        1 MOL     -0.418209
     85 O15        -2.5750   -4.1400   -3.1450 oh        1 MOL     -0.518306
     86 H35        -4.2510   -2.7490   -0.9240 hn        1 MOL      0.305095
     87 H36        -3.0420   -5.1750    0.0140 h1        1 MOL      0.085528
     88 H37        -1.5430   -5.5320   -2.0270 h1        1 MOL     -0.022548
     89 H38        -2.5450   -4.6570   -3.9440 ho        1 MOL      0.354869
     90 H39        -3.5760   -7.0230   -1.6780 hc        1 MOL      0.122926
     91 H40        -4.4450   -5.8920   -2.8220 hc        1 MOL      0.122926
     92 H41        -3.0300   -6.8430   -3.3210 hc        1 MOL      0.122926
     93 N9         -0.6540   -4.0010    0.2840 n         1 MOL     -0.605310
     94 C29         0.5260   -3.3510    0.7520 c3        1 MOL      0.170274
     95 C30         1.7090   -3.7130   -0.1140 c         1 MOL      0.676712
     96 O16         1.9770   -4.8310   -0.5290 o         1 MOL     -0.601208
     97 C31         0.7490   -3.6960    2.3630 c3        1 MOL     -0.101823
     98 C32        -0.2180   -2.8450    3.1750 c3        1 MOL      0.364560
     99 C33         2.2490   -3.7150    2.8750 c3        1 MOL     -0.282038
    100 C34        -0.3730   -3.2360    4.5870 c3        1 MOL     -0.192603
    101 H42        -0.6750   -5.0110    0.2290 hn        1 MOL      0.297264
    102 H43         0.3740   -2.2830    0.6100 h1        1 MOL     -0.026896
    103 H44         0.4420   -4.7420    2.4160 hc        1 MOL      0.048093
    104 H45        -1.2070   -2.9960    2.7320 hc        1 MOL     -0.037322
    105 H46         0.1050   -1.8110    3.0910 hc        1 MOL     -0.037322
    106 H47         2.7800   -4.4310    2.2430 hc        1 MOL      0.067479
    107 H48         2.7470   -2.7420    2.8470 hc        1 MOL      0.067479
    108 H49         2.2960   -4.0710    3.9100 hc        1 MOL      0.067479
    109 H50         0.4730   -2.8580    5.1660 hc        1 MOL      0.024222
    110 H51        -1.2180   -2.6930    5.0210 hc        1 MOL      0.024222
    111 H52        -0.7030   -4.2630    4.7240 hc        1 MOL      0.024222
    112 N10         2.5220   -2.6930   -0.3490 n         1 MOL     -0.271481
    113 C35         3.6210   -2.6100   -1.3030 c3        1 MOL     -0.009978
    114 C36         4.9600   -2.3830   -0.5950 c         1 MOL      0.251779
    115 O17         4.9210   -2.0920    0.6040 o         1 MOL     -0.328441
    116 C37         3.4840   -1.5190   -2.3680 c3        1 MOL      0.298093
    117 C38         2.2130   -1.7080   -3.2410 c3        1 MOL     -0.409976
    118 O18         3.4090   -0.2320   -1.8300 oh        1 MOL     -0.679951
    119 H53         2.2110   -1.7580   -0.1120 hn        1 MOL      0.163171
    120 H54         3.6890   -3.5150   -1.9000 h1        1 MOL      0.066322
    121 H55         4.3700   -1.5210   -2.9980 h1        1 MOL      0.013978
    122 H56         2.6280   -0.1400   -1.2870 ho        1 MOL      0.460462
    123 H57         2.2460   -2.4970   -3.9830 hc        1 MOL      0.103719
    124 H58         1.3600   -1.8650   -2.5790 hc        1 MOL      0.103719
    125 H59         2.0030   -0.7610   -3.7450 hc        1 MOL      0.103719
    126 N11         6.0700   -2.5220   -1.2290 n         1 MOL     -0.245828
    127 C39         7.3600   -1.9770   -0.7380 c3        1 MOL     -0.157377
    128 C40         7.3510   -0.5700   -0.1320 c         1 MOL      0.359468
    129 O19         7.9800   -0.3930    0.8920 o         1 MOL     -0.475191
    130 C41         8.3910   -2.0240   -1.8240 c3        1 MOL      0.219378
    131 C42         8.8570   -3.4230   -1.8940 c3        1 MOL     -0.407373
    132 O20         7.8250   -1.7280   -3.0430 oh        1 MOL     -0.666293
    133 H60         5.9390   -2.9090   -2.1500 hn        1 MOL      0.271778
    134 H61         7.5320   -2.6190    0.1260 h1        1 MOL      0.184732
    135 H62         9.2390   -1.3560   -1.6500 h1        1 MOL      0.083677
    136 H63         8.4600   -1.9240   -3.7440 ho        1 MOL      0.440831
    137 H64         9.6130   -3.4280   -2.6810 hc        1 MOL      0.119012
    138 H65         9.2890   -3.7410   -0.9410 hc        1 MOL      0.119012
    139 H66         8.0910   -4.1510   -2.1750 hc        1 MOL      0.119012
    140 N12         6.4880    0.3260   -0.6200 n         1 MOL     -0.131511
    141 C43         6.2830    1.6400   -0.0610 c3        1 MOL     -0.384369
    142 C44         5.5210    1.6930    1.2910 c         1 MOL      0.626669
    143 O21         5.2500    2.7900    1.7840 o         1 MOL     -0.580985
    144 C45         5.7160    2.6820   -1.1470 c3        1 MOL      0.108069
    145 C46         6.8180    3.0930   -2.0930 c3        1 MOL      0.254884
    146 C47         6.2500    3.6980   -3.3720 c3        1 MOL     -0.082782
    147 C48         7.2630    4.0250   -4.4160 c3        1 MOL      0.169735
    148 N13         6.6870    4.4120   -5.7050 n4        1 MOL     -0.381280
    149 H67         5.9890    0.1520   -1.4880 hn        1 MOL      0.305165
    150 H68         7.2530    1.9750    0.3000 h1        1 MOL      0.165436
    151 H69         5.1980    3.5640   -0.7700 hc        1 MOL     -0.004490
    152 H70         4.9860    2.1050   -1.7090 hc        1 MOL     -0.004490
    153 H71         7.2850    2.1880   -2.4840 hc        1 MOL     -0.060213
    154 H72         7.5290    3.7590   -1.6120 hc        1 MOL     -0.060213
    155 H73         5.7310    4.5990   -3.0500 hc        1 MOL      0.015993
    156 H74         5.5940    2.9760   -3.8450 hc        1 MOL      0.015993
    157 H75         7.9440    3.1840   -4.4920 hx        1 MOL      0.040218
    158 H76         7.9090    4.8220   -4.0470 hx        1 MOL      0.040218
    159 H77         7.1850    5.1070   -6.2250 hn        1 MOL      0.332866
    160 H78         6.8570    3.6630   -6.3590 hn        1 MOL      0.332866
    161 H79         5.6940    4.5840   -5.6060 hn        1 MOL      0.332866
    162 N14         5.0640    0.5980    1.8850 n         1 MOL     -0.207720
    163 C49         4.1020    0.4460    3.0120 c3        1 MOL     -0.182932
    164 C50         4.5990   -0.6600    3.9970 c         1 MOL      0.460600
    165 O22         4.4780   -0.6160    5.2340 o         1 MOL     -0.520374
    166 C51         2.6610    0.1000    2.5860 c3        1 MOL     -0.079372
    167 C52         1.9460    1.1550    1.7010 c3        1 MOL     -0.024039
    168 C53         0.9120    0.5040    0.7610 c         1 MOL      0.680270
    169 O23         1.3610   -0.0590   -0.2810 o         1 MOL     -0.736545
    170 O24        -0.2950    0.6700    0.9210 o         1 MOL     -0.736545
    171 H80         5.3210   -0.2240    1.3530 hn        1 MOL      0.056487
    172 H81         4.1010    1.3580    3.6050 h1        1 MOL      0.141292
    173 H82         2.1480   -0.1550    3.5110 hc        1 MOL      0.105224
    174 H83         2.8650   -0.7990    2.0100 hc        1 MOL      0.105224
    175 H84         2.6960    1.5980    1.0310 hc        1 MOL      0.081502
    176 H85         1.5180    1.9340    2.3370 hc        1 MOL      0.081502
    177 N15         5.2130   -1.7670    3.5250 n         1 MOL     -0.163012
    178 C54         5.5170   -2.9930    4.3020 c3        1 MOL     -0.303494
    179 H86         6.3150   -2.7830    5.0140 h1        1 MOL      0.125078
    180 H87         4.6250   -3.3120    4.8410 h1        1 MOL      0.125078
    181 H88         5.8340   -3.7840    3.6230 h1        1 MOL      0.125078
    182 H89         5.2750   -1.7840    2.5230 hn        1 MOL      0.168210
    183 Ca1        -1.7110    0.2580   -1.4010 Ca        1 MOL      1.796475
    184 O25        -0.1450    1.5790   -3.1850 oh        1 MOL     -0.825986
    185 H90        -0.4430    2.4640   -2.9920 ho        1 MOL      0.394297
    186 H91        -0.2870    1.4700   -4.1270 ho        1 MOL      0.394297
    187 O26        -1.3540   -1.6330   -3.4270 oh        1 MOL     -0.825986
    188 H92        -1.5710   -1.4980   -4.3610 ho        1 MOL      0.394297
    189 H93        -1.7310   -2.4940   -3.2210 ho        1 MOL      0.394297
@<TRIPOS>BOND
     1    1    2 1   
     2    1    4 1   
     3    1    5 1   
     4    1    6 1   
     5    2    3 2   
     6    2    7 1   
     7    7    8 1   
     8    7   15 1   
     9    8    9 1   
    10    8   11 1   
    11    8   16 1   
    12    9   10 2   
    13    9   19 1   
    14   11   12 1   
    15   11   17 1   
    16   11   18 1   
    17   12   13 1   
    18   12   14 1   
    19   19   20 1   
    20   19   28 1   
    21   20   21 1   
    22   20   23 1   
    23   20   29 1   
    24   21   22 2   
    25   21   41 1   
    26   23   24 1   
    27   23   30 1   
    28   23   31 1   
    29   24   25 1   
    30   24   32 1   
    31   24   33 1   
    32   25   26 1   
    33   25   34 1   
    34   25   35 1   
    35   26   27 1   
    36   26   36 1   
    37   26   37 1   
    38   27   38 1   
    39   27   39 1   
    40   27   40 1   
    41   41   42 1   
    42   41   49 1   
    43   42   43 1   
    44   42   45 1   
    45   42   50 1   
    46   43   44 2   
    47   43   53 1   
    48   45   46 1   
    49   45   51 1   
    50   45   52 1   
    51   46   47 1   
    52   46   48 1   
    53   53   54 1   
    54   53   57 1   
    55   54   55 1   
    56   54   58 1   
    57   54   59 1   
    58   55   56 2   
    59   55   60 1   
    60   60   61 1   
    61   60   68 1   
    62   61   62 1   
    63   61   64 1   
    64   61   69 1   
    65   62   63 2   
    66   62   72 1   
    67   64   65 1   
    68   64   70 1   
    69   64   71 1   
    70   65   66 1   
    71   65   67 1   
    72   72   73 1   
    73   72   76 1   
    74   73   74 1   
    75   73   77 1   
    76   73   78 1   
    77   74   75 2   
    78   74   79 1   
    79   79   80 1   
    80   79   86 1   
    81   80   81 1   
    82   80   83 1   
    83   80   87 1   
    84   81   82 2   
    85   81   93 1   
    86   83   84 1   
    87   83   85 1   
    88   83   88 1   
    89   84   90 1   
    90   84   91 1   
    91   84   92 1   
    92   85   89 1   
    93   93   94 1   
    94   93  101 1   
    95   94   95 1   
    96   94   97 1   
    97   94  102 1   
    98   95   96 2   
    99   95  112 1   
   100   97   98 1   
   101   97   99 1   
   102   97  103 1   
   103   98  100 1   
   104   98  104 1   
   105   98  105 1   
   106   99  106 1   
   107   99  107 1   
   108   99  108 1   
   109  100  109 1   
   110  100  110 1   
   111  100  111 1   
   112  112  113 1   
   113  112  119 1   
   114  113  114 1   
   115  113  116 1   
   116  113  120 1   
   117  114  115 2   
   118  114  126 1   
   119  116  117 1   
   120  116  118 1   
   121  116  121 1   
   122  117  123 1   
   123  117  124 1   
   124  117  125 1   
   125  118  122 1   
   126  126  127 1   
   127  126  133 1   
   128  127  128 1   
   129  127  130 1   
   130  127  134 1   
   131  128  129 2   
   132  128  140 1   
   133  130  131 1   
   134  130  132 1   
   135  130  135 1   
   136  131  137 1   
   137  131  138 1   
   138  131  139 1   
   139  132  136 1   
   140  140  141 1   
   141  140  149 1   
   142  141  142 1   
   143  141  144 1   
   144  141  150 1   
   145  142  143 2   
   146  142  162 1   
   147  144  145 1   
   148  144  151 1   
   149  144  152 1   
   150  145  146 1   
   151  145  153 1   
   152  145  154 1   
   153  146  147 1   
   154  146  155 1   
   155  146  156 1   
   156  147  148 1   
   157  147  157 1   
   158  147  158 1   
   159  148  159 1   
   160  148  160 1   
   161  148  161 1   
   162  162  163 1   
   163  162  171 1   
   164  163  164 1   
   165  163  166 1   
   166  163  172 1   
   167  164  165 2   
   168  164  177 1   
   169  166  167 1   
   170  166  173 1   
   171  166  174 1   
   172  167  168 1   
   173  167  175 1   
   174  167  176 1   
   175  168  169 1   
   176  168  170 1   
   177  177  178 1   
   178  177  182 1   
   179  178  179 1   
   180  178  180 1   
   181  178  181 1   
   182  184  185 1   
   183  184  186 1   
   184  187  188 1   
   185  187  189 1   
@<TRIPOS>SUBSTRUCTURE
     1 MOL         1 TEMP              0 ****  ****    0 ROOT
