@<TRIPOS>MOLECULE
MOL
  186   183     1     0     0
SMALL
resp


@<TRIPOS>ATOM
      1 C1          0.6800   -1.8770    6.3320 c3        1 MOL     -0.326738
      2 C2          0.9320   -1.8650    4.8210 c         1 MOL      0.847286
      3 O1          0.1790   -2.4400    4.0870 o         1 MOL     -0.605947
      4 H1          1.6300   -1.9840    6.8570 hc        1 MOL      0.063059
      5 H2          0.2040   -0.9420    6.6280 hc        1 MOL      0.063059
      6 H3          0.0290   -2.7130    6.5850 hc        1 MOL      0.063059
      7 N1          2.0240   -1.2690    4.3980 n         1 MOL     -0.696133
      8 C3          2.5350   -1.3570    3.0500 c3        1 MOL      0.222386
      9 C4          2.6380   -2.8690    2.6500 c         1 MOL      0.517133
     10 O2          3.1410   -3.6860    3.3740 o         1 MOL     -0.562243
     11 C5          3.9010   -0.6970    2.9570 c3        1 MOL     -0.255077
     12 C6          4.5840   -0.7160    1.6520 c         1 MOL      0.740418
     13 O3          5.8340   -0.8850    1.5440 o         1 MOL     -0.656269
     14 O4          3.8410   -0.5940    0.6600 o         1 MOL     -0.656269
     15 H4          2.5380   -0.9010    5.1780 hn        1 MOL      0.316824
     16 H5          1.8330   -0.8540    2.3860 h1        1 MOL     -0.004281
     17 H6          4.5860   -1.3460    3.5010 hc        1 MOL      0.053504
     18 H7          3.9050    0.3290    3.3190 hc        1 MOL      0.053504
     19 N2          2.2460   -3.3170    1.4090 n         1 MOL     -0.228538
     20 C7          2.3380   -4.7500    0.9510 c3        1 MOL     -0.097039
     21 C8          3.6680   -4.9620    0.2240 c         1 MOL      0.643056
     22 O5          4.2400   -6.0620    0.2120 o         1 MOL     -0.609265
     23 C9          1.0640   -5.1820    0.2310 c3        1 MOL      0.429181
     24 C10        -0.0970   -5.1060    1.2080 c3        1 MOL     -0.195558
     25 C11         1.2300   -6.4770   -0.5960 c3        1 MOL     -0.263324
     26 C12        -1.4170   -5.5550    0.6190 c3        1 MOL      0.031365
     27 H8          1.7970   -2.6230    0.8330 hn        1 MOL      0.169829
     28 H9          2.5130   -5.4380    1.7800 h1        1 MOL      0.029569
     29 H10         0.8990   -4.4990   -0.6070 hc        1 MOL     -0.025416
     30 H11        -0.1000   -4.0510    1.4990 hc        1 MOL      0.032267
     31 H12         0.1180   -5.7700    2.0490 hc        1 MOL      0.032267
     32 H13         1.3880   -7.2730    0.1300 hc        1 MOL      0.037855
     33 H14         0.3740   -6.7300   -1.2310 hc        1 MOL      0.037855
     34 H15         2.0860   -6.4260   -1.2570 hc        1 MOL      0.037855
     35 H16        -1.6140   -4.9980   -0.2950 hc        1 MOL     -0.015854
     36 H17        -1.4190   -6.6370    0.4930 hc        1 MOL     -0.015854
     37 H18        -2.2650   -5.3410    1.2740 hc        1 MOL     -0.015854
     38 N3          4.1460   -3.8770   -0.4460 n         1 MOL     -0.524197
     39 C13         5.1200   -4.1170   -1.5510 c3        1 MOL      0.031476
     40 C14         6.4520   -3.3470   -1.5230 c         1 MOL      0.380675
     41 O6          7.1310   -3.2890   -2.5390 o         1 MOL     -0.513644
     42 C15         4.4180   -3.9290   -2.9000 c3        1 MOL     -0.091987
     43 C16         3.4760   -2.7130   -3.0780 c         1 MOL      0.822761
     44 O7          2.7040   -2.7370   -4.0710 o         1 MOL     -0.728202
     45 O8          3.6340   -1.7860   -2.2520 o         1 MOL     -0.728202
     46 H19         3.7440   -2.9490   -0.4020 hn        1 MOL      0.254869
     47 H20         5.4520   -5.1480   -1.6260 h1        1 MOL      0.091686
     48 H21         3.7150   -4.7560   -2.9290 hc        1 MOL      0.004847
     49 H22         5.0990   -3.9110   -3.7490 hc        1 MOL      0.004847
     50 N4          6.8660   -2.6990   -0.4150 n         1 MOL     -0.220025
     51 C17         8.2200   -2.2280   -0.2500 c3        1 MOL     -0.235489
     52 C18         8.4550   -0.7280   -0.5700 c         1 MOL      0.559814
     53 O9          9.5630   -0.2830   -0.7090 o         1 MOL     -0.618954
     54 H23         6.1990   -2.6980    0.3460 hn        1 MOL      0.244178
     55 H24         8.9830   -2.7290   -0.8500 h1        1 MOL      0.107257
     56 H25         8.4420   -2.4350    0.7990 h1        1 MOL      0.107257
     57 N5          7.4250    0.1430   -0.5920 n         1 MOL     -0.104141
     58 C19         7.4880    1.5600   -0.9730 c3        1 MOL     -0.003988
     59 C20         7.1120    2.5230    0.1620 c         1 MOL      0.414141
     60 O10         7.3280    3.7400    0.0350 o         1 MOL     -0.544079
     61 C21         6.6550    1.8440   -2.2500 c3        1 MOL     -0.217421
     62 C22         5.1940    1.4060   -2.1480 c         1 MOL      0.683259
     63 O11         4.5350    1.8640   -1.1790 o         1 MOL     -0.684857
     64 O12         4.5690    0.7960   -3.0370 o         1 MOL     -0.684857
     65 H26         6.5560   -0.2490   -0.2570 hn        1 MOL      0.078107
     66 H27         8.5380    1.8280   -1.0730 h1        1 MOL      0.081164
     67 H28         7.0450    1.2020   -3.0440 hc        1 MOL      0.064480
     68 H29         6.7500    2.8870   -2.5240 hc        1 MOL      0.064480
     69 N6          6.5540    1.9990    1.2910 n         1 MOL     -0.206216
     70 C23         6.2250    2.8300    2.4240 c3        1 MOL      0.065813
     71 C24         5.0740    3.7920    2.1650 c         1 MOL      0.496589
     72 O13         4.9120    4.6880    3.0290 o         1 MOL     -0.636811
     73 H30         6.4930    0.9950    1.3110 hn        1 MOL      0.118233
     74 H31         7.1040    3.3890    2.7500 h1        1 MOL      0.029285
     75 H32         5.8480    2.2440    3.2650 h1        1 MOL      0.029285
     76 N7          4.1230    3.6790    1.2380 n         1 MOL     -0.295803
     77 C25         2.8470    4.4460    1.0630 c3        1 MOL      0.127678
     78 C26         1.6770    3.4520    0.8720 c         1 MOL      0.621504
     79 O14         1.9300    2.3700    0.3560 o         1 MOL     -0.712296
     80 C27         2.7860    5.4180   -0.1650 c3        1 MOL     -0.008756
     81 C28         3.6930    6.6950   -0.0870 c3        1 MOL      0.013453
     82 C29         3.5220    7.5940   -1.2340 c         1 MOL      0.679709
     83 N8          4.2450    8.7090   -1.2460 n         1 MOL     -0.821183
     84 O15         2.8690    7.3670   -2.2410 o         1 MOL     -0.569370
     85 H33         4.3640    2.9650    0.5740 hn        1 MOL      0.215486
     86 H34         2.6790    5.0570    1.9480 h1        1 MOL      0.027424
     87 H35         1.7290    5.7160   -0.1870 hc        1 MOL     -0.021687
     88 H36         3.1100    4.7650   -0.9630 hc        1 MOL     -0.021687
     89 H37         4.7460    6.4880    0.1180 hc        1 MOL      0.008412
     90 H38         3.3380    7.2770    0.7590 hc        1 MOL      0.008412
     91 H39         4.7560    9.1570   -0.5020 hn        1 MOL      0.338893
     92 H40         4.2060    9.3190   -2.0540 hn        1 MOL      0.338893
     93 N9          0.5660    3.6450    1.5100 n         1 MOL     -0.505867
     94 C30        -0.5700    2.7710    1.5670 c3        1 MOL      0.054960
     95 C31        -1.7720    3.1310    0.7080 c         1 MOL      0.565335
     96 O16        -2.5000    4.0220    0.9790 o         1 MOL     -0.569836
     97 C32        -0.8940    2.4280    3.0540 c3        1 MOL      0.036565
     98 C33        -2.2760    1.8990    3.3180 c3        1 MOL     -0.234004
     99 C34         0.1080    1.4010    3.5710 c3        1 MOL     -0.234004
    100 H41         0.5560    4.3820    2.1970 hn        1 MOL      0.262930
    101 H42        -0.1350    1.8480    1.1670 h1        1 MOL      0.185220
    102 H43        -0.8670    3.3430    3.6510 hc        1 MOL      0.021818
    103 H44        -2.5410    1.0960    2.6250 hc        1 MOL      0.059160
    104 H45        -2.4660    1.4980    4.3100 hc        1 MOL      0.059160
    105 H46        -2.9910    2.6830    3.0550 hc        1 MOL      0.059160
    106 H47         1.0540    1.4170    3.0410 hc        1 MOL      0.059160
    107 H48         0.3770    1.5770    4.6080 hc        1 MOL      0.059160
    108 H49        -0.3160    0.3970    3.5830 hc        1 MOL      0.059160
    109 N10        -2.0850    2.3010   -0.2560 n         1 MOL     -0.357978
    110 C35        -3.3090    2.2840   -1.0020 c3        1 MOL     -0.012800
    111 C36        -4.4940    1.7970   -0.1590 c         1 MOL      0.247867
    112 O17        -4.3080    1.2410    0.8500 o         1 MOL     -0.181528
    113 C37        -3.0750    1.3190   -2.2040 c3        1 MOL     -0.054396
    114 C38        -3.9160    1.6800   -3.4150 c         1 MOL      0.559473
    115 N11        -3.5650    1.0400   -4.4850 n         1 MOL     -0.698801
    116 O18        -4.9180    2.3950   -3.3630 o         1 MOL     -0.586110
    117 H50        -1.4480    1.5700   -0.5490 hn        1 MOL      0.222902
    118 H51        -3.4810    3.2680   -1.4320 h1        1 MOL      0.070583
    119 H52        -3.3280    0.3660   -1.7570 hc        1 MOL      0.101092
    120 H53        -2.0340    1.4270   -2.5350 hc        1 MOL      0.101092
    121 H54        -2.8050    0.3750   -4.5080 hn        1 MOL      0.350996
    122 H55        -4.2820    1.0550   -5.2050 hn        1 MOL      0.350996
    123 N12        -5.6930    1.9830   -0.7000 n         1 MOL     -0.226977
    124 C39        -6.9480    1.5040   -0.1750 c3        1 MOL     -0.025008
    125 C40        -7.1280    0.0410   -0.0590 c         1 MOL      0.578208
    126 O19        -7.5810   -0.5020    0.9610 o         1 MOL     -0.534756
    127 C41        -8.0860    2.0860   -1.0070 c3        1 MOL     -0.080446
    128 C42        -9.4380    1.7720   -0.3360 ca        1 MOL      0.103399
    129 C43        -9.7250    2.5110    0.8300 ca        1 MOL     -0.232898
    130 C44       -10.4680    0.9540   -0.9550 ca        1 MOL     -0.232898
    131 C45       -11.0360    2.4530    1.4210 ca        1 MOL     -0.198475
    132 C46       -11.6290    0.7440   -0.2730 ca        1 MOL     -0.198475
    133 C47       -11.9790    1.5000    0.9010 ca        1 MOL      0.304080
    134 O20       -13.2980    1.4030    1.2770 oh        1 MOL     -0.536257
    135 H56        -5.7930    2.6590   -1.4420 hn        1 MOL      0.226167
    136 H57        -7.0400    1.9960    0.7970 h1        1 MOL      0.055711
    137 H58        -8.1780    1.5090   -1.9220 hc        1 MOL      0.042498
    138 H59        -8.0210    3.1530   -1.2130 hc        1 MOL      0.042498
    139 H60        -9.0780    3.2800    1.2160 ha        1 MOL      0.161650
    140 H61       -10.1260    0.4310   -1.8280 ha        1 MOL      0.161650
    141 H62       -11.3970    3.0870    2.2190 ha        1 MOL      0.127468
    142 H63       -12.3720    0.0390   -0.6230 ha        1 MOL      0.127468
    143 H64       -13.7530    0.6590    0.8760 ho        1 MOL      0.378190
    144 N13        -6.7800   -0.6880   -1.1190 n         1 MOL     -0.379247
    145 C48        -6.6540   -2.1390   -1.1540 c3        1 MOL     -0.022623
    146 C49        -5.6990   -2.6470   -0.0540 c         1 MOL      0.374648
    147 O21        -5.9360   -3.6870    0.5440 o         1 MOL     -0.526245
    148 C50        -6.0770   -2.6330   -2.4920 c3        1 MOL     -0.122559
    149 C51        -4.9870   -1.7680   -3.1520 c3        1 MOL     -0.095341
    150 C52        -4.4170   -2.3580   -4.4680 c         1 MOL      0.807298
    151 O22        -4.7230   -1.8470   -5.5640 o         1 MOL     -0.741262
    152 O23        -3.6440   -3.3090   -4.4800 o         1 MOL     -0.741262
    153 H65        -6.4880   -0.1940   -1.9530 hn        1 MOL      0.347183
    154 H66        -7.6300   -2.6100   -1.0050 h1        1 MOL      0.071166
    155 H67        -6.8040   -2.7420   -3.2870 hc        1 MOL      0.063387
    156 H68        -5.6750   -3.6410   -2.3600 hc        1 MOL      0.063387
    157 H69        -4.1290   -1.6070   -2.4980 hc        1 MOL     -0.089415
    158 H70        -5.3370   -0.7660   -3.3930 hc        1 MOL     -0.089415
    159 N14        -4.6270   -1.9010    0.1430 n         1 MOL      0.168047
    160 C53        -3.6050   -2.2470    1.1530 c3        1 MOL     -0.093983
    161 C54        -4.0580   -2.0090    2.5490 c         1 MOL      0.359317
    162 O24        -3.7090   -2.8170    3.4820 o         1 MOL     -0.535264
    163 C55        -2.2980   -1.5190    0.8640 c3        1 MOL      0.306644
    164 C56        -1.5560   -1.7860   -0.4790 c3        1 MOL     -0.131658
    165 C57        -0.1470   -1.1910   -0.6270 c         1 MOL      0.740463
    166 O25         0.8970   -1.8710   -0.5620 o         1 MOL     -0.775610
    167 O26        -0.1050    0.0080   -0.6840 o         1 MOL     -0.775610
    168 H71        -4.5130   -1.0400   -0.3760 hn        1 MOL     -0.300351
    169 H72        -3.4040   -3.3090    1.0040 h1        1 MOL      0.103478
    170 H73        -1.5510   -1.7900    1.6100 hc        1 MOL     -0.034184
    171 H74        -2.3680   -0.4360    0.9840 hc        1 MOL     -0.034184
    172 H75        -2.2300   -1.4070   -1.2420 hc        1 MOL      0.054299
    173 H76        -1.5510   -2.8670   -0.6450 hc        1 MOL      0.054299
    174 N15        -4.7480   -0.9050    2.7710 n         1 MOL      0.050968
    175 C58        -5.3700   -0.6330    4.0700 c3        1 MOL     -0.390290
    176 H77        -4.6120   -0.6790    4.8520 h1        1 MOL      0.122037
    177 H78        -5.8180    0.3600    4.0580 h1        1 MOL      0.122037
    178 H79        -6.1400   -1.3780    4.2670 h1        1 MOL      0.122037
    179 H80        -4.7540   -0.1570    2.0820 hn        1 MOL      0.018296
    180 Ca1         2.4880    0.2240   -1.2870 Ca        1 MOL      1.772666
    181 O27         1.2410   -0.1750   -3.4750 oh        1 MOL     -0.827394
    182 H81         1.7910   -0.4840   -4.1960 ho        1 MOL      0.401296
    183 H82         0.3530   -0.2120   -3.8280 ho        1 MOL      0.401296
    184 O28         2.2170    2.6410   -2.8220 oh        1 MOL     -0.827394
    185 H83         2.0580    3.5450   -3.0710 ho        1 MOL      0.401296
    186 H84         3.1250    2.6230   -2.5070 ho        1 MOL      0.401296
@<TRIPOS>BOND
     1    1    2 1   
     2    1    4 1   
     3    1    5 1   
     4    1    6 1   
     5    2    3 2   
     6    2    7 1   
     7    7    8 1   
     8    7   15 1   
     9    8    9 1   
    10    8   11 1   
    11    8   16 1   
    12    9   10 2   
    13    9   19 1   
    14   11   12 1   
    15   11   17 1   
    16   11   18 1   
    17   12   13 1   
    18   12   14 1   
    19   19   20 1   
    20   19   27 1   
    21   20   21 1   
    22   20   23 1   
    23   20   28 1   
    24   21   22 2   
    25   21   38 1   
    26   23   24 1   
    27   23   25 1   
    28   23   29 1   
    29   24   26 1   
    30   24   30 1   
    31   24   31 1   
    32   25   32 1   
    33   25   33 1   
    34   25   34 1   
    35   26   35 1   
    36   26   36 1   
    37   26   37 1   
    38   38   39 1   
    39   38   46 1   
    40   39   40 1   
    41   39   42 1   
    42   39   47 1   
    43   40   41 2   
    44   40   50 1   
    45   42   43 1   
    46   42   48 1   
    47   42   49 1   
    48   43   44 1   
    49   43   45 1   
    50   50   51 1   
    51   50   54 1   
    52   51   52 1   
    53   51   55 1   
    54   51   56 1   
    55   52   53 2   
    56   52   57 1   
    57   57   58 1   
    58   57   65 1   
    59   58   59 1   
    60   58   61 1   
    61   58   66 1   
    62   59   60 2   
    63   59   69 1   
    64   61   62 1   
    65   61   67 1   
    66   61   68 1   
    67   62   63 1   
    68   62   64 1   
    69   69   70 1   
    70   69   73 1   
    71   70   71 1   
    72   70   74 1   
    73   70   75 1   
    74   71   72 2   
    75   71   76 1   
    76   76   77 1   
    77   76   85 1   
    78   77   78 1   
    79   77   80 1   
    80   77   86 1   
    81   78   79 2   
    82   78   93 1   
    83   80   81 1   
    84   80   87 1   
    85   80   88 1   
    86   81   82 1   
    87   81   89 1   
    88   81   90 1   
    89   82   83 1   
    90   82   84 2   
    91   83   91 1   
    92   83   92 1   
    93   93   94 1   
    94   93  100 1   
    95   94   95 1   
    96   94   97 1   
    97   94  101 1   
    98   95   96 2   
    99   95  109 1   
   100   97   98 1   
   101   97   99 1   
   102   97  102 1   
   103   98  103 1   
   104   98  104 1   
   105   98  105 1   
   106   99  106 1   
   107   99  107 1   
   108   99  108 1   
   109  109  110 1   
   110  109  117 1   
   111  110  111 1   
   112  110  113 1   
   113  110  118 1   
   114  111  112 2   
   115  111  123 1   
   116  113  114 1   
   117  113  119 1   
   118  113  120 1   
   119  114  115 1   
   120  114  116 2   
   121  115  121 1   
   122  115  122 1   
   123  123  124 1   
   124  123  135 1   
   125  124  125 1   
   126  124  127 1   
   127  124  136 1   
   128  125  126 2   
   129  125  144 1   
   130  127  128 1   
   131  127  137 1   
   132  127  138 1   
   133  128  129 ar  
   134  128  130 ar  
   135  129  131 ar  
   136  129  139 1   
   137  130  132 ar  
   138  130  140 1   
   139  131  133 ar  
   140  131  141 1   
   141  132  133 ar  
   142  132  142 1   
   143  133  134 1   
   144  134  143 1   
   145  144  145 1   
   146  144  153 1   
   147  145  146 1   
   148  145  148 1   
   149  145  154 1   
   150  146  147 2   
   151  146  159 1   
   152  148  149 1   
   153  148  155 1   
   154  148  156 1   
   155  149  150 1   
   156  149  157 1   
   157  149  158 1   
   158  150  151 1   
   159  150  152 1   
   160  159  160 1   
   161  159  168 1   
   162  160  161 1   
   163  160  163 1   
   164  160  169 1   
   165  161  162 2   
   166  161  174 1   
   167  163  164 1   
   168  163  170 1   
   169  163  171 1   
   170  164  165 1   
   171  164  172 1   
   172  164  173 1   
   173  165  166 1   
   174  165  167 1   
   175  174  175 1   
   176  174  179 1   
   177  175  176 1   
   178  175  177 1   
   179  175  178 1   
   180  181  182 1   
   181  181  183 1   
   182  184  185 1   
   183  184  186 1   
@<TRIPOS>SUBSTRUCTURE
     1 MOL         1 TEMP              0 ****  ****    0 ROOT
