@<TRIPOS>MOLECULE
MOL
  183   181     1     0     0
SMALL
resp


@<TRIPOS>ATOM
      1 C1          1.3640    4.0600   -5.6550 c3        1 MOL     -0.258450
      2 C2          1.6570    3.6250   -4.2170 c         1 MOL      0.780491
      3 O1          0.7300    3.8510   -3.4640 o         1 MOL     -0.614108
      4 H1          1.6780    3.2750   -6.3430 hc        1 MOL      0.049794
      5 H2          0.2950    4.2390   -5.7710 hc        1 MOL      0.049794
      6 H3          1.9120    4.9760   -5.8760 hc        1 MOL      0.049794
      7 N1          2.7220    2.9190   -3.8940 n         1 MOL     -0.665415
      8 C3          3.0890    2.3450   -2.5990 c3        1 MOL      0.023046
      9 C4          3.6060    3.5030   -1.7500 c         1 MOL      0.610109
     10 O2          4.7550    3.9170   -1.8880 o         1 MOL     -0.579479
     11 C5          4.0470    1.2120   -2.7690 c3        1 MOL      0.053969
     12 C6          4.3270    0.5240   -1.4410 c         1 MOL      0.822755
     13 O3          5.2460   -0.2690   -1.3730 o         1 MOL     -0.779364
     14 O4          3.7010    0.8720   -0.4380 o         1 MOL     -0.779364
     15 H4          3.3720    2.7160   -4.6450 hn        1 MOL      0.325389
     16 H5          2.2120    1.9360   -2.1030 h1        1 MOL      0.064547
     17 H6          5.0200    1.6470   -3.0180 hc        1 MOL     -0.028658
     18 H7          3.7750    0.5180   -3.5560 hc        1 MOL     -0.028658
     19 N2          2.8440    3.9320   -0.7350 n         1 MOL     -0.365568
     20 C7          3.0090    5.1560    0.0800 c3        1 MOL     -0.228046
     21 C8          3.8890    4.9330    1.3610 c         1 MOL      0.539747
     22 O5          4.4400    5.8230    2.0000 o         1 MOL     -0.583480
     23 C9          1.6100    5.7800    0.4270 c3        1 MOL      0.261859
     24 C10         0.5370    5.5790   -0.6880 c3        1 MOL      0.200861
     25 C11         1.6810    7.3540    0.6050 c3        1 MOL     -0.256810
     26 C12        -0.8700    6.2850   -0.2390 c3        1 MOL     -0.238279
     27 H8          1.9960    3.4300   -0.5150 hn        1 MOL      0.217079
     28 H9          3.4810    5.9250   -0.5420 h1        1 MOL      0.107243
     29 H10         1.3310    5.3430    1.3850 hc        1 MOL      0.003671
     30 H11         0.3170    4.5150   -0.7850 hc        1 MOL     -0.022830
     31 H12         0.8540    5.9740   -1.6460 hc        1 MOL     -0.022830
     32 H13         2.4910    7.7740    1.1850 hc        1 MOL      0.039754
     33 H14         1.6460    7.8780   -0.3540 hc        1 MOL      0.039754
     34 H15         0.8210    7.5230    1.2420 hc        1 MOL      0.039754
     35 H16        -1.5950    5.9330   -0.9730 hc        1 MOL      0.042168
     36 H17        -1.1250    5.9070    0.7490 hc        1 MOL      0.042168
     37 H18        -0.8720    7.3680   -0.3250 hc        1 MOL      0.042168
     38 N3          4.1330    3.6800    1.6850 n         1 MOL     -0.303021
     39 C13         5.0600    3.2770    2.8210 c3        1 MOL      0.035953
     40 C14         6.3240    2.5530    2.3130 c         1 MOL      0.326660
     41 O6          7.2100    2.2400    3.0940 o         1 MOL     -0.531206
     42 C15         4.3340    2.4430    3.9010 c3        1 MOL     -0.253618
     43 C16         3.6090    1.2600    3.2620 c         1 MOL      0.714088
     44 O7          2.3500    1.2040    3.2520 o         1 MOL     -0.735041
     45 O8          4.2940    0.3580    2.6480 o         1 MOL     -0.735041
     46 H19         3.6840    2.9060    1.2250 hn        1 MOL      0.315025
     47 H20         5.3440    4.1840    3.3580 h1        1 MOL      0.104668
     48 H21         3.6470    3.1330    4.3900 hc        1 MOL      0.077054
     49 H22         5.1080    2.1360    4.5970 hc        1 MOL      0.077054
     50 N4          6.3020    2.0440    1.0770 n         1 MOL      0.003107
     51 C17         7.4590    1.5190    0.3970 c3        1 MOL     -0.424595
     52 C18         7.7280    0.0270    0.6960 c         1 MOL      0.651362
     53 O9          8.8560   -0.4510    0.5050 o         1 MOL     -0.616626
     54 H23         5.3880    2.1590    0.6560 hn        1 MOL      0.077391
     55 H24         8.3240    2.1790    0.5110 h1        1 MOL      0.165537
     56 H25         7.1330    1.4940   -0.6470 h1        1 MOL      0.165537
     57 N5          6.8680   -0.6490    1.5270 n         1 MOL     -0.416114
     58 C19         6.9580   -2.0400    1.9910 c3        1 MOL      0.153790
     59 C20         7.1200   -3.0060    0.8180 c         1 MOL      0.423834
     60 O10         7.7340   -4.0600    0.9830 o         1 MOL     -0.610658
     61 C21         5.8020   -2.5750    2.9140 c3        1 MOL     -0.443440
     62 C22         4.3670   -2.4760    2.3900 c         1 MOL      0.863524
     63 O11         3.4460   -2.6920    3.2240 o         1 MOL     -0.763531
     64 O12         4.0960   -2.2000    1.2050 o         1 MOL     -0.763531
     65 H26         6.0890   -0.1500    1.9400 hn        1 MOL      0.354388
     66 H27         7.8290   -2.1820    2.6280 h1        1 MOL      0.041375
     67 H28         5.8980   -1.9210    3.7830 hc        1 MOL      0.116731
     68 H29         5.9730   -3.6210    3.1300 hc        1 MOL      0.116731
     69 N6          6.7160   -2.6420   -0.4110 n         1 MOL     -0.032819
     70 C23         7.0130   -3.2180   -1.7330 c3        1 MOL     -0.316713
     71 C24         5.7360   -3.6110   -2.4680 c         1 MOL      0.631996
     72 O13         5.8310   -4.0900   -3.5790 o         1 MOL     -0.598544
     73 H30         6.1100   -1.8340   -0.3890 hn        1 MOL      0.218334
     74 H31         7.6940   -4.0530   -1.5940 h1        1 MOL      0.122048
     75 H32         7.5470   -2.3760   -2.1730 h1        1 MOL      0.122048
     76 N7          4.5540   -3.3340   -1.9040 n         1 MOL     -0.165902
     77 C25         3.2080   -3.6700   -2.3710 c3        1 MOL      0.032263
     78 C26         2.1310   -2.7140   -1.9750 c         1 MOL      0.643243
     79 O14         2.2150   -2.0390   -0.9410 o         1 MOL     -0.585920
     80 C27         2.9220   -5.1790   -1.9490 c3        1 MOL     -0.189186
     81 C28         2.9120   -5.5400   -0.4950 c3        1 MOL     -0.012106
     82 C29         2.7360   -7.0000   -0.1700 c         1 MOL      0.657499
     83 N8          2.5790   -7.3460    1.1190 n         1 MOL     -0.838262
     84 O15         2.4720   -7.9560   -0.9720 o         1 MOL     -0.583220
     85 H33         4.5440   -2.7320   -1.0960 hn        1 MOL      0.039725
     86 H34         3.3330   -3.6220   -3.4570 h1        1 MOL      0.017575
     87 H35         3.6300   -5.8870   -2.3730 hc        1 MOL      0.042012
     88 H36         1.9170   -5.4500   -2.2590 hc        1 MOL      0.042012
     89 H37         2.1000   -4.9230   -0.1250 hc        1 MOL      0.034977
     90 H38         3.8140   -5.1710   -0.0020 hc        1 MOL      0.034977
     91 H39         2.7110   -6.6160    1.8050 hn        1 MOL      0.372449
     92 H40         2.0900   -8.2090    1.2870 hn        1 MOL      0.372449
     93 N9          1.0130   -2.6420   -2.7020 n         1 MOL     -0.404103
     94 C30        -0.0630   -1.7110   -2.4640 c3        1 MOL     -0.047595
     95 C31        -1.3080   -2.3520   -1.8130 c         1 MOL      0.649132
     96 O16        -1.8600   -3.2490   -2.4400 o         1 MOL     -0.597177
     97 C32        -0.4800   -0.9800   -3.7620 c3        1 MOL      0.324648
     98 C33        -1.2400    0.3720   -3.4610 c3        1 MOL     -0.427230
     99 C34         0.7260   -0.6260   -4.6130 c3        1 MOL     -0.427230
    100 H41         1.0480   -3.2090   -3.5280 hn        1 MOL      0.256607
    101 H42         0.3290   -0.9570   -1.7840 h1        1 MOL      0.000357
    102 H43        -1.2000   -1.5930   -4.3180 hc        1 MOL     -0.042520
    103 H44        -2.1720    0.1850   -2.9280 hc        1 MOL      0.102255
    104 H45        -0.6150    0.9210   -2.7670 hc        1 MOL      0.102255
    105 H46        -1.4010    0.9890   -4.3430 hc        1 MOL      0.102255
    106 H47         1.4540   -0.0410   -4.0500 hc        1 MOL      0.102255
    107 H48         1.2000   -1.5200   -5.0150 hc        1 MOL      0.102255
    108 H49         0.3710   -0.0660   -5.4810 hc        1 MOL      0.102255
    109 N10        -1.6370   -1.9890   -0.5520 n         1 MOL     -0.470829
    110 C35        -2.8750   -2.4450    0.1650 c3        1 MOL      0.213208
    111 C36        -4.0590   -1.6750   -0.3310 c         1 MOL      0.238247
    112 O17        -3.9440   -0.6330   -0.9820 o         1 MOL     -0.253188
    113 C37        -2.7650   -2.1810    1.7360 c3        1 MOL     -0.280327
    114 C38        -3.8730   -2.8880    2.5020 c         1 MOL      0.642063
    115 N11        -3.6140   -4.1880    2.6120 n         1 MOL     -0.777052
    116 O18        -4.8390   -2.3700    2.9190 o         1 MOL     -0.476642
    117 H50        -1.2110   -1.1570   -0.1650 hn        1 MOL      0.229287
    118 H51        -2.9340   -3.4990   -0.0690 h1        1 MOL      0.036022
    119 H52        -2.6760   -1.1100    1.9240 hc        1 MOL      0.113945
    120 H53        -1.8010   -2.6430    1.9990 hc        1 MOL      0.113945
    121 H54        -2.6880   -4.5380    2.3670 hn        1 MOL      0.351931
    122 H55        -4.3470   -4.7930    2.9580 hn        1 MOL      0.351931
    123 N12        -5.2900   -2.2140   -0.2020 n         1 MOL     -0.394520
    124 C39        -6.5870   -1.5930   -0.4970 c3        1 MOL      0.225603
    125 C40        -6.7800   -0.1830    0.1100 c         1 MOL      0.642937
    126 O19        -7.1960    0.7680   -0.5470 o         1 MOL     -0.582322
    127 C41        -7.7390   -2.5070   -0.1320 c3        1 MOL     -0.211424
    128 C42        -9.0000   -2.0140   -0.7910 ca        1 MOL      0.071817
    129 C43        -9.1290   -1.9150   -2.2170 ca        1 MOL     -0.207688
    130 C44       -10.0460   -1.5820    0.0110 ca        1 MOL     -0.207688
    131 C45       -10.3090   -1.4210   -2.8470 ca        1 MOL     -0.240436
    132 C46       -11.1310   -0.9450   -0.5660 ca        1 MOL     -0.240436
    133 C47       -11.2370   -0.8970   -1.9640 ca        1 MOL      0.336149
    134 O20       -12.4490   -0.5210   -2.5190 oh        1 MOL     -0.487902
    135 H56        -5.4310   -3.1570    0.1410 hn        1 MOL      0.221076
    136 H57        -6.6400   -1.4680   -1.5760 h1        1 MOL      0.012206
    137 H58        -7.9090   -2.5490    0.9470 hc        1 MOL      0.078246
    138 H59        -7.5750   -3.4950   -0.5660 hc        1 MOL      0.078246
    139 H60        -8.3380   -2.3190   -2.8380 ha        1 MOL      0.156152
    140 H61        -9.9530   -1.6640    1.0860 ha        1 MOL      0.156152
    141 H62       -10.5570   -1.3910   -3.8940 ha        1 MOL      0.156082
    142 H63       -11.9490   -0.5840    0.0520 ha        1 MOL      0.156082
    143 H64       -12.9080   -0.3470   -1.6930 ho        1 MOL      0.316655
    144 N13        -6.3760    0.0570    1.3610 n         1 MOL     -0.439672
    145 C48        -6.3310    1.3300    2.0260 c3        1 MOL      0.038098
    146 C49        -5.3240    2.3210    1.4100 c         1 MOL      0.341023
    147 O21        -5.4180    3.5040    1.7260 o         1 MOL     -0.505515
    148 C50        -6.2770    1.0880    3.5580 c3        1 MOL      0.143183
    149 C51        -7.4360    0.3580    3.9640 c3        1 MOL     -0.221842
    150 C52        -7.3820    0.0130    5.4810 c         1 MOL      0.764705
    151 O22        -7.7020   -1.1030    5.8320 o         1 MOL     -0.754889
    152 O23        -7.1330    0.9230    6.2860 o         1 MOL     -0.754889
    153 H65        -5.9980   -0.7740    1.7980 hn        1 MOL      0.234593
    154 H66        -7.3030    1.7490    1.8100 h1        1 MOL      0.096920
    155 H67        -6.2820    2.0710    4.0290 hc        1 MOL     -0.013199
    156 H68        -5.3300    0.5960    3.8090 hc        1 MOL     -0.013199
    157 H69        -7.4930   -0.5720    3.4060 hc        1 MOL      0.004729
    158 H70        -8.2910    0.9790    3.7220 hc        1 MOL      0.004729
    159 N14        -4.4240    1.9360    0.4370 n         1 MOL     -0.144670
    160 C53        -3.6940    2.8390   -0.3730 c3        1 MOL      0.044041
    161 C54        -4.2560    3.0200   -1.8000 c         1 MOL      0.345333
    162 O24        -4.2580    4.0620   -2.4720 o         1 MOL     -0.569378
    163 C55        -2.2170    2.3350   -0.4640 c3        1 MOL      0.025045
    164 C56        -1.3450    2.2250    0.7290 c3        1 MOL      0.065678
    165 C57        -0.0820    1.4160    0.3760 c         1 MOL      0.751707
    166 O25         0.9590    2.0070    0.6640 o         1 MOL     -0.752424
    167 O26        -0.0820    0.1450    0.2670 o         1 MOL     -0.752424
    168 H71        -4.4120    0.9650    0.1500 hn        1 MOL      0.082233
    169 H72        -3.6240    3.8180    0.1160 h1        1 MOL      0.053740
    170 H73        -1.7020    2.8320   -1.2820 hc        1 MOL      0.025273
    171 H74        -2.2990    1.3230   -0.8660 hc        1 MOL      0.025273
    172 H75        -1.8950    1.6120    1.4460 hc        1 MOL     -0.037409
    173 H76        -1.1180    3.2300    1.0660 hc        1 MOL     -0.037409
    174 N15        -4.8780    1.9840   -2.2330 n         1 MOL      0.061830
    175 C58        -5.6360    1.9130   -3.4940 c3        1 MOL     -0.290456
    176 H77        -5.0820    1.3150   -4.2170 h1        1 MOL      0.098799
    177 H78        -6.6070    1.4540   -3.3080 h1        1 MOL      0.098799
    178 H79        -5.7790    2.9190   -3.8880 h1        1 MOL      0.098799
    179 H80        -4.8210    1.1260   -1.6930 hn        1 MOL      0.022180
    180 Ca1         2.2680   -0.4300    1.2010 Ca        1 MOL      1.760540
    181 O27         1.1410   -1.7840    3.1230 oh        1 MOL     -0.899676
    182 H81         0.7980   -1.3760    3.9180 ho        1 MOL      0.415478
    183 H82         1.9630   -2.1770    3.3980 ho        1 MOL      0.415478
@<TRIPOS>BOND
     1    1    2 1   
     2    1    4 1   
     3    1    5 1   
     4    1    6 1   
     5    2    3 2   
     6    2    7 1   
     7    7    8 1   
     8    7   15 1   
     9    8    9 1   
    10    8   11 1   
    11    8   16 1   
    12    9   10 2   
    13    9   19 1   
    14   11   12 1   
    15   11   17 1   
    16   11   18 1   
    17   12   13 1   
    18   12   14 1   
    19   19   20 1   
    20   19   27 1   
    21   20   21 1   
    22   20   23 1   
    23   20   28 1   
    24   21   22 2   
    25   21   38 1   
    26   23   24 1   
    27   23   25 1   
    28   23   29 1   
    29   24   26 1   
    30   24   30 1   
    31   24   31 1   
    32   25   32 1   
    33   25   33 1   
    34   25   34 1   
    35   26   35 1   
    36   26   36 1   
    37   26   37 1   
    38   38   39 1   
    39   38   46 1   
    40   39   40 1   
    41   39   42 1   
    42   39   47 1   
    43   40   41 2   
    44   40   50 1   
    45   42   43 1   
    46   42   48 1   
    47   42   49 1   
    48   43   44 1   
    49   43   45 1   
    50   50   51 1   
    51   50   54 1   
    52   51   52 1   
    53   51   55 1   
    54   51   56 1   
    55   52   53 2   
    56   52   57 1   
    57   57   58 1   
    58   57   65 1   
    59   58   59 1   
    60   58   61 1   
    61   58   66 1   
    62   59   60 2   
    63   59   69 1   
    64   61   62 1   
    65   61   67 1   
    66   61   68 1   
    67   62   63 1   
    68   62   64 1   
    69   69   70 1   
    70   69   73 1   
    71   70   71 1   
    72   70   74 1   
    73   70   75 1   
    74   71   72 2   
    75   71   76 1   
    76   76   77 1   
    77   76   85 1   
    78   77   78 1   
    79   77   80 1   
    80   77   86 1   
    81   78   79 2   
    82   78   93 1   
    83   80   81 1   
    84   80   87 1   
    85   80   88 1   
    86   81   82 1   
    87   81   89 1   
    88   81   90 1   
    89   82   83 1   
    90   82   84 2   
    91   83   91 1   
    92   83   92 1   
    93   93   94 1   
    94   93  100 1   
    95   94   95 1   
    96   94   97 1   
    97   94  101 1   
    98   95   96 2   
    99   95  109 1   
   100   97   98 1   
   101   97   99 1   
   102   97  102 1   
   103   98  103 1   
   104   98  104 1   
   105   98  105 1   
   106   99  106 1   
   107   99  107 1   
   108   99  108 1   
   109  109  110 1   
   110  109  117 1   
   111  110  111 1   
   112  110  113 1   
   113  110  118 1   
   114  111  112 2   
   115  111  123 1   
   116  113  114 1   
   117  113  119 1   
   118  113  120 1   
   119  114  115 1   
   120  114  116 2   
   121  115  121 1   
   122  115  122 1   
   123  123  124 1   
   124  123  135 1   
   125  124  125 1   
   126  124  127 1   
   127  124  136 1   
   128  125  126 2   
   129  125  144 1   
   130  127  128 1   
   131  127  137 1   
   132  127  138 1   
   133  128  129 ar  
   134  128  130 ar  
   135  129  131 ar  
   136  129  139 1   
   137  130  132 ar  
   138  130  140 1   
   139  131  133 ar  
   140  131  141 1   
   141  132  133 ar  
   142  132  142 1   
   143  133  134 1   
   144  134  143 1   
   145  144  145 1   
   146  144  153 1   
   147  145  146 1   
   148  145  148 1   
   149  145  154 1   
   150  146  147 2   
   151  146  159 1   
   152  148  149 1   
   153  148  155 1   
   154  148  156 1   
   155  149  150 1   
   156  149  157 1   
   157  149  158 1   
   158  150  151 1   
   159  150  152 1   
   160  159  160 1   
   161  159  168 1   
   162  160  161 1   
   163  160  163 1   
   164  160  169 1   
   165  161  162 2   
   166  161  174 1   
   167  163  164 1   
   168  163  170 1   
   169  163  171 1   
   170  164  165 1   
   171  164  172 1   
   172  164  173 1   
   173  165  166 1   
   174  165  167 1   
   175  174  175 1   
   176  174  179 1   
   177  175  176 1   
   178  175  177 1   
   179  175  178 1   
   180  181  182 1   
   181  181  183 1   
@<TRIPOS>SUBSTRUCTURE
     1 MOL         1 TEMP              0 ****  ****    0 ROOT
