@<TRIPOS>MOLECULE
MOL
  175   173     1     0     0
SMALL
resp


@<TRIPOS>ATOM
      1 C1          0.3250    4.0910    5.5540 c3        1 MOL     -0.421728
      2 C2         -0.2300    4.0440    4.1450 c         1 MOL      0.700880
      3 O1          0.5030    4.1240    3.1310 o         1 MOL     -0.567089
      4 H1         -0.4980    4.1600    6.2660 hc        1 MOL      0.107721
      5 H2          0.8990    3.1850    5.7490 hc        1 MOL      0.107721
      6 H3          0.9710    4.9620    5.6610 hc        1 MOL      0.107721
      7 N1         -1.5410    3.8470    3.9820 n         1 MOL     -0.585754
      8 C3         -2.1450    3.6090    2.6990 c3        1 MOL      0.073229
      9 C4         -2.2460    4.7960    1.7180 c         1 MOL      0.589255
     10 O2         -2.5010    5.9310    2.1460 o         1 MOL     -0.590763
     11 C5         -3.5740    3.2220    2.9800 c3        1 MOL     -0.265251
     12 C6         -4.3320    2.9660    1.6370 c         1 MOL      0.604593
     13 O3         -5.3820    3.5800    1.3050 o         1 MOL     -0.619354
     14 O4         -3.7850    2.2200    0.7560 o         1 MOL     -0.619354
     15 H4         -2.1630    3.9190    4.7670 hn        1 MOL      0.327128
     16 H5         -1.5180    2.8700    2.2200 h1        1 MOL      0.132012
     17 H6         -4.0880    4.0060    3.5270 hc        1 MOL      0.058999
     18 H7         -3.6750    2.3030    3.5680 hc        1 MOL      0.058999
     19 N2         -2.2230    4.4940    0.4450 n         1 MOL     -0.375126
     20 C7         -2.5980    5.3880   -0.6390 c3        1 MOL      0.253570
     21 C8         -3.6920    4.9430   -1.6060 c         1 MOL      0.413142
     22 O5         -4.1430    5.7560   -2.4290 o         1 MOL     -0.594816
     23 C9         -1.3150    5.6940   -1.4610 c3        1 MOL     -0.112058
     24 H8         -1.9820    3.5320    0.2820 hn        1 MOL      0.167466
     25 H9         -2.8560    6.3920   -0.3000 h1        1 MOL      0.028828
     26 H10        -0.5690    6.0130   -0.7280 hc        1 MOL      0.022532
     27 H11        -0.8650    4.8570   -1.9840 hc        1 MOL      0.022532
     28 H12        -1.4000    6.5140   -2.1830 hc        1 MOL      0.022532
     29 N3         -4.2140    3.6800   -1.6120 n         1 MOL     -0.286833
     30 C10        -5.0980    3.1520   -2.6700 c3        1 MOL      0.038571
     31 C11        -6.3200    2.2340   -2.2270 c         1 MOL      0.320140
     32 O6         -7.1750    1.8900   -2.9980 o         1 MOL     -0.509526
     33 C12        -4.2120    2.3690   -3.5970 c3        1 MOL     -0.185339
     34 C13        -3.3840    1.3090   -2.8860 c         1 MOL      0.638695
     35 O7         -2.3360    0.8970   -3.4440 o         1 MOL     -0.679542
     36 O8         -3.7950    0.8520   -1.8170 o         1 MOL     -0.679542
     37 H13        -3.8260    3.1230   -0.8530 hn        1 MOL      0.293366
     38 H14        -5.5010    3.9490   -3.2980 h1        1 MOL      0.109712
     39 H15        -3.4520    3.0880   -3.8940 hc        1 MOL      0.049319
     40 H16        -4.7430    2.0370   -4.4850 hc        1 MOL      0.049319
     41 N4         -6.4710    1.9410   -0.8960 n         1 MOL     -0.193614
     42 C14        -7.4040    0.8760   -0.4150 c3        1 MOL     -0.049624
     43 C15        -7.3850   -0.4420   -1.1400 c         1 MOL      0.423815
     44 O9         -8.4420   -1.1660   -1.0590 o         1 MOL     -0.598234
     45 H17        -5.8680    2.3430   -0.1970 hn        1 MOL      0.145631
     46 H18        -8.4180    1.2640   -0.4040 h1        1 MOL      0.063618
     47 H19        -7.2260    0.7840    0.6620 h1        1 MOL      0.063618
     48 N5         -6.2780   -0.8920   -1.7190 n         1 MOL     -0.212634
     49 C16        -6.1720   -2.3030   -2.1320 c3        1 MOL     -0.112368
     50 C17        -6.0420   -3.3460   -0.9250 c         1 MOL      0.423498
     51 O10        -6.1890   -4.5860   -1.1390 o         1 MOL     -0.504381
     52 C18        -4.9610   -2.5620   -3.1230 c3        1 MOL     -0.129975
     53 C19        -3.5700   -2.4180   -2.5160 c         1 MOL      0.663327
     54 N6         -2.5740   -2.5650   -3.3330 n         1 MOL     -0.663893
     55 O11        -3.3500   -2.1870   -1.3200 o         1 MOL     -0.556343
     56 H20        -5.5340   -0.2320   -1.8990 hn        1 MOL      0.301078
     57 H21        -7.0670   -2.4960   -2.7150 h1        1 MOL      0.133147
     58 H22        -5.0270   -1.8830   -3.9790 hc        1 MOL      0.047336
     59 H23        -5.0820   -3.5820   -3.4680 hc        1 MOL      0.047336
     60 H24        -2.8250   -2.6750   -4.3010 hn        1 MOL      0.331028
     61 H25        -1.6320   -2.4420   -2.9830 hn        1 MOL      0.331028
     62 N7         -6.0260   -2.8620    0.3780 n         1 MOL     -0.063626
     63 C20        -6.0400   -3.7520    1.5600 c3        1 MOL     -0.489295
     64 C21        -4.7550   -4.5350    1.9090 c         1 MOL      0.714101
     65 O12        -4.7540   -5.3680    2.7710 o         1 MOL     -0.602263
     66 H26        -6.1020   -1.8730    0.5480 hn        1 MOL      0.187669
     67 H27        -6.6550   -4.6110    1.2700 h1        1 MOL      0.159444
     68 H28        -6.3420   -3.1350    2.4140 h1        1 MOL      0.159444
     69 N8         -3.6950   -4.0970    1.2720 n         1 MOL     -0.274115
     70 C22        -2.3250   -4.6280    1.4880 c3        1 MOL     -0.249135
     71 C23        -1.3600   -3.4250    1.7030 c         1 MOL      0.626907
     72 O13        -1.5480   -2.3680    1.0780 o         1 MOL     -0.666268
     73 C24        -1.8440   -5.5110    0.2970 c3        1 MOL      0.517506
     74 C25        -2.4270   -6.9150    0.4190 c3        1 MOL     -0.410809
     75 O14        -2.3720   -4.9740   -0.9130 oh        1 MOL     -0.580928
     76 H29        -3.8970   -3.5030    0.4860 hn        1 MOL      0.156748
     77 H30        -2.3330   -5.2300    2.3990 h1        1 MOL      0.099412
     78 H31        -0.7570   -5.5360    0.2650 h1        1 MOL     -0.033882
     79 H32        -2.1620   -4.0350   -0.9510 ho        1 MOL      0.318143
     80 H33        -2.1880   -7.4160    1.3590 hc        1 MOL      0.102452
     81 H34        -3.5110   -6.9910    0.3400 hc        1 MOL      0.102452
     82 H35        -1.9260   -7.5420   -0.3120 hc        1 MOL      0.102452
     83 N9         -0.2360   -3.6410    2.3800 n         1 MOL     -0.433626
     84 C26         0.9490   -2.7420    2.2600 c3        1 MOL     -0.044621
     85 C27         1.6680   -3.0850    0.9910 c         1 MOL      0.574338
     86 O15         2.2030   -4.2260    0.7840 o         1 MOL     -0.608079
     87 C28         1.9960   -2.8070    3.4500 c3        1 MOL      0.126140
     88 C29         1.3110   -2.4510    4.8450 c3        1 MOL      0.328935
     89 C30         3.2230   -1.9660    3.2720 c3        1 MOL     -0.310988
     90 C31         1.9710   -3.2130    5.9510 c3        1 MOL     -0.222797
     91 H36        -0.1350   -4.5740    2.7540 hn        1 MOL      0.263441
     92 H37         0.6440   -1.7050    2.1690 h1        1 MOL      0.039058
     93 H38         2.2980   -3.8550    3.4300 hc        1 MOL     -0.014807
     94 H39         0.2810   -2.8050    4.7810 hc        1 MOL     -0.079671
     95 H40         1.2490   -1.3900    5.0520 hc        1 MOL     -0.079671
     96 H41         3.9310   -2.2390    4.0540 hc        1 MOL      0.066503
     97 H42         3.5900   -1.9610    2.2510 hc        1 MOL      0.066503
     98 H43         2.8820   -0.9480    3.4540 hc        1 MOL      0.066503
     99 H44         1.9970   -4.2660    5.6690 hc        1 MOL      0.031294
    100 H45         2.9570   -2.7800    6.1240 hc        1 MOL      0.031294
    101 H46         1.3320   -3.0710    6.8200 hc        1 MOL      0.031294
    102 N10         1.7880   -2.0470    0.1630 n         1 MOL     -0.207061
    103 C32         2.6440   -2.0830   -1.0260 c3        1 MOL     -0.081826
    104 C33         4.1320   -1.6370   -0.6880 c         1 MOL      0.480488
    105 O16         4.3540   -0.8380    0.2730 o         1 MOL     -0.321835
    106 C34         2.0830   -1.1970   -2.1240 c3        1 MOL     -0.264574
    107 C35         0.6180   -1.5120   -2.5200 c         1 MOL      0.692375
    108 O17         0.4090   -2.0530   -3.6210 o         1 MOL     -0.637463
    109 O18        -0.2560   -1.0800   -1.7010 o         1 MOL     -0.637463
    110 H47         1.4520   -1.1470    0.4990 hn        1 MOL      0.231073
    111 H48         2.7440   -3.1230   -1.3430 h1        1 MOL      0.096724
    112 H49         2.7120   -1.2100   -3.0140 hc        1 MOL      0.075436
    113 H50         2.1870   -0.1780   -1.7550 hc        1 MOL      0.075436
    114 N11         5.1790   -2.1120   -1.4690 n         1 MOL     -0.657349
    115 C36         6.5820   -1.5820   -1.3400 c3        1 MOL      0.300189
    116 C37         6.7200   -0.0430   -1.1610 c         1 MOL      0.439765
    117 O19         7.3780    0.4550   -0.2200 o         1 MOL     -0.492325
    118 C38         7.6260   -2.1380   -2.3030 c3        1 MOL     -0.192758
    119 C39         9.0160   -1.7170   -2.0570 ca        1 MOL      0.216847
    120 C40         9.7300   -0.8040   -2.8480 ca        1 MOL     -0.310968
    121 C41         9.5180   -2.1940   -0.8120 ca        1 MOL     -0.310968
    122 C42        10.9640   -0.2870   -2.3390 ca        1 MOL      0.036304
    123 C43        10.6860   -1.5900   -0.3120 ca        1 MOL      0.036304
    124 C44        11.4860   -0.7640   -1.1490 ca        1 MOL     -0.261073
    125 H51         5.0870   -3.0410   -1.8620 hn        1 MOL      0.344852
    126 H52         6.8880   -1.8590   -0.3250 h1        1 MOL      0.039830
    127 H53         7.4080   -1.8970   -3.3450 hc        1 MOL      0.052878
    128 H54         7.6090   -3.2290   -2.2490 hc        1 MOL      0.052878
    129 H55         9.3280   -0.3800   -3.7550 ha        1 MOL      0.149538
    130 H56         8.9720   -2.9420   -0.2720 ha        1 MOL      0.149538
    131 H57        11.5320    0.4520   -2.8730 ha        1 MOL      0.083512
    132 H58        11.0380   -1.7950    0.6930 ha        1 MOL      0.083512
    133 H59        12.3760   -0.3120   -0.7430 ha        1 MOL      0.132895
    134 N12         6.1010    0.7630   -2.0520 n         1 MOL     -0.185380
    135 C45         6.3350    2.2160   -1.8710 c3        1 MOL      0.102632
    136 C46         5.6620    2.8220   -0.5750 c         1 MOL      0.314573
    137 O20         6.1560    3.8180   -0.0490 o         1 MOL     -0.513703
    138 C47         5.8800    2.8150   -3.1570 c3        1 MOL     -0.000581
    139 C48         5.6950    1.7160   -4.1510 c3        1 MOL     -0.005649
    140 C49         5.3220    0.4880   -3.2990 c3        1 MOL     -0.203306
    141 H60         7.4150    2.3920   -1.7930 h1        1 MOL      0.039916
    142 H61         4.8990    3.1780   -2.8360 hc        1 MOL      0.016632
    143 H62         6.4770    3.6680   -3.4750 hc        1 MOL      0.016632
    144 H63         4.8760    1.9660   -4.8290 hc        1 MOL      0.027634
    145 H64         6.5250    1.6840   -4.8560 hc        1 MOL      0.027634
    146 H65         4.2680    0.5370   -3.0500 h1        1 MOL      0.114700
    147 H66         5.5490   -0.4680   -3.7860 h1        1 MOL      0.114700
    148 N13         4.6220    2.1830   -0.0300 n         1 MOL     -0.061583
    149 C50         3.9680    2.4190    1.2890 c3        1 MOL     -0.358693
    150 C51         4.7970    1.9350    2.4790 c         1 MOL      0.607207
    151 O21         4.6220    2.4490    3.5450 o         1 MOL     -0.568274
    152 C52         2.6340    1.7130    1.3130 c3        1 MOL      0.017996
    153 C53         1.5910    2.3710    0.4170 c3        1 MOL     -0.003176
    154 C54         0.3160    1.6060    0.3180 c         1 MOL      0.557618
    155 O22        -0.7320    2.0370   -0.2460 o         1 MOL     -0.704981
    156 O23         0.2280    0.5580    0.9970 o         1 MOL     -0.704981
    157 H67         4.2700    1.4020   -0.5670 hn        1 MOL      0.150536
    158 H68         3.7490    3.4820    1.3750 h1        1 MOL      0.177444
    159 H69         2.3170    1.8200    2.3530 hc        1 MOL      0.056180
    160 H70         2.7320    0.6350    1.1810 hc        1 MOL      0.056180
    161 H71         2.0080    2.5490   -0.5770 hc        1 MOL      0.030930
    162 H72         1.3640    3.3470    0.8530 hc        1 MOL      0.030930
    163 N14         5.6700    0.9090    2.3040 n         1 MOL     -0.111569
    164 C55         6.6830    0.3810    3.2850 c3        1 MOL     -0.235097
    165 H73         7.0160   -0.6080    2.9660 h1        1 MOL      0.092395
    166 H74         7.5380    1.0550    3.3240 h1        1 MOL      0.092395
    167 H75         6.2290    0.3090    4.2740 h1        1 MOL      0.092395
    168 H76         5.6020    0.4370    1.4080 hn        1 MOL      0.041117
    169 Ca1        -2.0920   -0.0310   -0.1610 Ca        1 MOL      1.670267
    170 O24        -1.9910    0.3000    2.5050 oh        1 MOL     -0.801061
    171 H77        -1.0650    0.4570    2.3170 ho        1 MOL      0.387247
    172 H78        -2.0600    0.3870    3.4550 ho        1 MOL      0.387247
    173 O25        -4.7950   -0.2740    0.8710 oh        1 MOL     -0.801061
    174 H79        -4.6560    0.6730    0.8870 ho        1 MOL      0.387247
    175 H80        -5.1000   -0.4980    1.7510 ho        1 MOL      0.387247
@<TRIPOS>BOND
     1    1    2 1   
     2    1    4 1   
     3    1    5 1   
     4    1    6 1   
     5    2    3 2   
     6    2    7 1   
     7    7    8 1   
     8    7   15 1   
     9    8    9 1   
    10    8   11 1   
    11    8   16 1   
    12    9   10 2   
    13    9   19 1   
    14   11   12 1   
    15   11   17 1   
    16   11   18 1   
    17   12   13 1   
    18   12   14 1   
    19   19   20 1   
    20   19   24 1   
    21   20   21 1   
    22   20   23 1   
    23   20   25 1   
    24   21   22 2   
    25   21   29 1   
    26   23   26 1   
    27   23   27 1   
    28   23   28 1   
    29   29   30 1   
    30   29   37 1   
    31   30   31 1   
    32   30   33 1   
    33   30   38 1   
    34   31   32 2   
    35   31   41 1   
    36   33   34 1   
    37   33   39 1   
    38   33   40 1   
    39   34   35 1   
    40   34   36 1   
    41   41   42 1   
    42   41   45 1   
    43   42   43 1   
    44   42   46 1   
    45   42   47 1   
    46   43   44 2   
    47   43   48 1   
    48   48   49 1   
    49   48   56 1   
    50   49   50 1   
    51   49   52 1   
    52   49   57 1   
    53   50   51 2   
    54   50   62 1   
    55   52   53 1   
    56   52   58 1   
    57   52   59 1   
    58   53   54 1   
    59   53   55 2   
    60   54   60 1   
    61   54   61 1   
    62   62   63 1   
    63   62   66 1   
    64   63   64 1   
    65   63   67 1   
    66   63   68 1   
    67   64   65 2   
    68   64   69 1   
    69   69   70 1   
    70   69   76 1   
    71   70   71 1   
    72   70   73 1   
    73   70   77 1   
    74   71   72 2   
    75   71   83 1   
    76   73   74 1   
    77   73   75 1   
    78   73   78 1   
    79   74   80 1   
    80   74   81 1   
    81   74   82 1   
    82   75   79 1   
    83   83   84 1   
    84   83   91 1   
    85   84   85 1   
    86   84   87 1   
    87   84   92 1   
    88   85   86 2   
    89   85  102 1   
    90   87   88 1   
    91   87   89 1   
    92   87   93 1   
    93   88   90 1   
    94   88   94 1   
    95   88   95 1   
    96   89   96 1   
    97   89   97 1   
    98   89   98 1   
    99   90   99 1   
   100   90  100 1   
   101   90  101 1   
   102  102  103 1   
   103  102  110 1   
   104  103  104 1   
   105  103  106 1   
   106  103  111 1   
   107  104  105 2   
   108  104  114 1   
   109  106  107 1   
   110  106  112 1   
   111  106  113 1   
   112  107  108 1   
   113  107  109 1   
   114  114  115 1   
   115  114  125 1   
   116  115  116 1   
   117  115  118 1   
   118  115  126 1   
   119  116  117 2   
   120  116  134 1   
   121  118  119 1   
   122  118  127 1   
   123  118  128 1   
   124  119  120 ar  
   125  119  121 ar  
   126  120  122 ar  
   127  120  129 1   
   128  121  123 ar  
   129  121  130 1   
   130  122  124 ar  
   131  122  131 1   
   132  123  124 ar  
   133  123  132 1   
   134  124  133 1   
   135  134  135 1   
   136  134  140 1   
   137  135  136 1   
   138  135  138 1   
   139  135  141 1   
   140  136  137 2   
   141  136  148 1   
   142  138  139 1   
   143  138  142 1   
   144  138  143 1   
   145  139  140 1   
   146  139  144 1   
   147  139  145 1   
   148  140  146 1   
   149  140  147 1   
   150  148  149 1   
   151  148  157 1   
   152  149  150 1   
   153  149  152 1   
   154  149  158 1   
   155  150  151 2   
   156  150  163 1   
   157  152  153 1   
   158  152  159 1   
   159  152  160 1   
   160  153  154 1   
   161  153  161 1   
   162  153  162 1   
   163  154  155 1   
   164  154  156 1   
   165  163  164 1   
   166  163  168 1   
   167  164  165 1   
   168  164  166 1   
   169  164  167 1   
   170  170  171 1   
   171  170  172 1   
   172  173  174 1   
   173  173  175 1   
@<TRIPOS>SUBSTRUCTURE
     1 MOL         1 TEMP              0 ****  ****    0 ROOT
