@<TRIPOS>MOLECULE
MOL
  172   171     1     0     0
SMALL
resp


@<TRIPOS>ATOM
      1 C1         -0.3010    3.7510    5.6970 c3        1 MOL     -0.302118
      2 C2         -0.5440    3.2240    4.2860 c         1 MOL      0.835240
      3 O1          0.2790    3.4600    3.4500 o         1 MOL     -0.611894
      4 H1         -0.8210    4.7000    5.8240 hc        1 MOL      0.062872
      5 H2         -0.6780    3.0310    6.4240 hc        1 MOL      0.062872
      6 H3          0.7680    3.8990    5.8510 hc        1 MOL      0.062872
      7 N1         -1.6240    2.4510    4.0620 n         1 MOL     -0.684905
      8 C3         -2.0540    2.0360    2.6930 c3        1 MOL      0.142678
      9 C4         -2.3440    3.3280    1.8230 c         1 MOL      0.420628
     10 O2         -3.2290    4.1040    2.1280 o         1 MOL     -0.539680
     11 C5         -3.2010    1.0730    2.7400 c3        1 MOL     -0.092462
     12 C6         -3.6230    0.3670    1.4530 c         1 MOL      0.676171
     13 O3         -4.3450   -0.6080    1.5700 o         1 MOL     -0.684194
     14 O4         -3.1600    0.6950    0.3500 o         1 MOL     -0.684194
     15 H4         -2.2850    2.2650    4.7910 hn        1 MOL      0.328142
     16 H5         -1.2020    1.5100    2.2720 h1        1 MOL      0.084742
     17 H6         -4.0180    1.6480    3.1690 hc        1 MOL      0.021076
     18 H7         -2.9520    0.2310    3.3910 hc        1 MOL      0.021076
     19 N2         -1.4960    3.6840    0.8810 n         1 MOL     -0.057338
     20 C7         -1.4450    4.9940    0.2220 c3        1 MOL      0.015940
     21 C8         -2.7890    5.2140   -0.6380 c         1 MOL      0.474103
     22 O5         -3.3800    6.2880   -0.5740 o         1 MOL     -0.569124
     23 C9         -0.1230    5.1670   -0.5200 c3        1 MOL     -0.258297
     24 H8         -0.8500    2.9900    0.5400 hn        1 MOL      0.084453
     25 H9         -1.4110    5.7730    0.9840 h1        1 MOL      0.064841
     26 H10         0.7340    4.9400    0.1110 hc        1 MOL      0.079099
     27 H11        -0.0610    4.4170   -1.3090 hc        1 MOL      0.079099
     28 H12        -0.0580    6.1970   -0.8630 hc        1 MOL      0.079099
     29 N3         -3.2470    4.1980   -1.3540 n         1 MOL     -0.218811
     30 C10        -4.5040    4.1870   -2.0430 c3        1 MOL     -0.063457
     31 C11        -5.6140    3.5130   -1.2470 c         1 MOL      0.390262
     32 O6         -6.7500    3.6710   -1.6290 o         1 MOL     -0.520510
     33 C12        -4.4370    3.6480   -3.4570 c3        1 MOL     -0.051123
     34 C13        -3.7680    2.2640   -3.6480 c         1 MOL      0.692471
     35 O7         -3.4420    1.4710   -2.7470 o         1 MOL     -0.739841
     36 O8         -3.3870    2.0220   -4.8390 o         1 MOL     -0.739841
     37 H13        -2.7750    3.3050   -1.3150 hn        1 MOL      0.206718
     38 H14        -4.8390    5.2090   -2.2310 h1        1 MOL      0.101244
     39 H15        -4.0440    4.4260   -4.1120 hc        1 MOL      0.023312
     40 H16        -5.4360    3.4750   -3.8400 hc        1 MOL      0.023312
     41 N4         -5.2560    2.7990   -0.1550 n         1 MOL      0.129583
     42 C14        -6.2610    2.3150    0.8260 c3        1 MOL     -0.164413
     43 C15        -7.1020    1.2110    0.2280 c         1 MOL      0.416923
     44 O9         -8.3530    1.2090    0.0510 o         1 MOL     -0.566277
     45 H17        -4.2850    2.7730    0.1310 hn        1 MOL     -0.097665
     46 H18        -6.8720    3.1790    1.0900 h1        1 MOL      0.093194
     47 H19        -5.8380    1.8610    1.7220 h1        1 MOL      0.093194
     48 N5         -6.4440    0.1670   -0.3230 n         1 MOL     -0.010360
     49 C16        -7.0820   -0.9380   -1.0330 c3        1 MOL     -0.142707
     50 C17        -7.1750   -2.2180   -0.2070 c         1 MOL      0.472722
     51 O10        -7.7850   -3.2440   -0.4880 o         1 MOL     -0.555183
     52 C18        -6.3600   -1.2210   -2.3690 c3        1 MOL     -0.079860
     53 C19        -5.1890   -2.1190   -2.3250 c         1 MOL      0.409859
     54 N6         -5.2890   -3.2470   -2.9770 n         1 MOL     -0.559922
     55 O11        -4.1450   -1.8260   -1.8300 o         1 MOL     -0.521818
     56 H20        -5.4580    0.0510   -0.1070 hn        1 MOL     -0.050732
     57 H21        -8.0820   -0.5810   -1.2640 h1        1 MOL      0.150301
     58 H22        -6.0900   -0.2620   -2.7930 hc        1 MOL      0.066730
     59 H23        -7.0580   -1.6060   -3.1060 hc        1 MOL      0.066730
     60 H24        -6.2180   -3.4310   -3.3450 hn        1 MOL      0.304927
     61 H25        -4.5020   -3.8420   -3.1790 hn        1 MOL      0.304927
     62 N7         -6.6610   -2.1730    0.9980 n         1 MOL     -0.365941
     63 C20        -6.4320   -3.3250    1.9030 c3        1 MOL      0.136885
     64 C21        -5.1440   -4.1140    1.7510 c         1 MOL      0.558793
     65 O12        -5.2870   -5.2430    2.2540 o         1 MOL     -0.615910
     66 H26        -6.2210   -1.3060    1.2590 hn        1 MOL      0.264247
     67 H27        -7.2710   -4.0100    1.9930 h1        1 MOL      0.014500
     68 H28        -6.2960   -2.9070    2.9040 h1        1 MOL      0.014500
     69 N8         -4.0690   -3.6200    1.1400 n         1 MOL     -0.161090
     70 C22        -2.7840   -4.2380    1.0870 c3        1 MOL     -0.304983
     71 C23        -1.6590   -3.1850    0.9840 c         1 MOL      0.708466
     72 O13        -1.5200   -2.4250    0.0090 o         1 MOL     -0.495995
     73 C24        -2.5370   -5.1680   -0.1620 c3        1 MOL      0.407412
     74 C25        -2.9000   -6.6060    0.1680 c3        1 MOL     -0.509010
     75 O14        -3.2750   -4.7020   -1.3430 oh        1 MOL     -0.623068
     76 H29        -4.0890   -2.6290    0.9370 hn        1 MOL      0.192508
     77 H30        -2.6120   -4.8800    1.9510 h1        1 MOL      0.098363
     78 H31        -1.4600   -5.1650   -0.3460 h1        1 MOL      0.032905
     79 H32        -2.8120   -3.9350   -1.6820 ho        1 MOL      0.469559
     80 H33        -2.6240   -7.3770   -0.5440 hc        1 MOL      0.129140
     81 H34        -2.4210   -6.9410    1.0960 hc        1 MOL      0.129140
     82 H35        -3.9800   -6.7390    0.1810 hc        1 MOL      0.129140
     83 N9         -0.7620   -3.1520    1.9330 n         1 MOL     -0.603224
     84 C26         0.3810   -2.2600    1.9300 c3        1 MOL      0.092334
     85 C27         1.4090   -2.7750    0.9140 c         1 MOL      0.414908
     86 O15         1.8270   -3.9080    1.0690 o         1 MOL     -0.583574
     87 C28         1.0100   -2.2050    3.3480 c3        1 MOL      0.287565
     88 C29        -0.0360   -1.9000    4.4020 c3        1 MOL      0.152932
     89 C30         2.1720   -1.1330    3.3920 c3        1 MOL     -0.326491
     90 C31         0.5080   -2.0850    5.8530 c3        1 MOL     -0.203587
     91 H36        -0.8520   -3.7030    2.7820 hn        1 MOL      0.306089
     92 H37         0.0280   -1.2770    1.5880 h1        1 MOL      0.003900
     93 H38         1.4400   -3.1780    3.5840 hc        1 MOL     -0.050208
     94 H39        -0.8850   -2.5840    4.3020 hc        1 MOL     -0.049971
     95 H40        -0.4070   -0.8770    4.2610 hc        1 MOL     -0.049971
     96 H41         2.9750   -1.3570    2.7020 hc        1 MOL      0.060059
     97 H42         1.6600   -0.1790    3.2200 hc        1 MOL      0.060059
     98 H43         2.6430   -1.1170    4.3780 hc        1 MOL      0.060059
     99 H44         0.8560   -3.0870    6.1000 hc        1 MOL      0.035626
    100 H45         1.2710   -1.3200    6.0080 hc        1 MOL      0.035626
    101 H46        -0.2500   -1.8410    6.6010 hc        1 MOL      0.035626
    102 N10         1.8300   -2.0170   -0.0530 n         1 MOL     -0.123625
    103 C32         2.9200   -2.2830   -0.9950 c3        1 MOL      0.058714
    104 C33         4.2440   -1.6720   -0.5010 c         1 MOL      0.395558
    105 O16         4.1850   -0.8320    0.4060 o         1 MOL     -0.332174
    106 C34         2.5580   -1.6990   -2.3980 c3        1 MOL     -0.269860
    107 C35         1.0890   -1.9890   -2.8020 c         1 MOL      0.756498
    108 O17         0.3370   -1.0440   -2.7080 o         1 MOL     -0.709898
    109 O18         0.6860   -3.1160   -3.1850 o         1 MOL     -0.709898
    110 H47         1.4430   -1.0940   -0.1780 hn        1 MOL      0.170570
    111 H48         3.0350   -3.3630   -1.0970 h1        1 MOL      0.060404
    112 H49         3.1950   -2.1520   -3.1520 hc        1 MOL      0.072086
    113 H50         2.5630   -0.6090   -2.3740 hc        1 MOL      0.072086
    114 N11         5.3810   -2.1090   -1.0750 n         1 MOL     -0.608782
    115 C36         6.6690   -1.6870   -0.6430 c3        1 MOL      0.401925
    116 C37         6.9100   -0.1690   -0.7640 c         1 MOL      0.237694
    117 O19         7.3100    0.3170    0.2520 o         1 MOL     -0.429600
    118 C38         7.7430   -2.4540   -1.3450 c3        1 MOL     -0.265457
    119 C39         9.0870   -2.0930   -0.7410 ca        1 MOL      0.104263
    120 C40         9.4320   -2.5370    0.5610 ca        1 MOL     -0.179377
    121 C41        10.0580   -1.2990   -1.4290 ca        1 MOL     -0.179377
    122 C42        10.6420   -2.1450    1.1530 ca        1 MOL     -0.118788
    123 C43        11.2290   -0.8970   -0.8000 ca        1 MOL     -0.118788
    124 C44        11.5240   -1.3300    0.5110 ca        1 MOL     -0.072526
    125 H51         5.1950   -2.6160   -1.9280 hn        1 MOL      0.305541
    126 H52         6.6410   -1.8580    0.4410 h1        1 MOL      0.063522
    127 H53         7.7380   -2.2220   -2.4050 hc        1 MOL      0.081307
    128 H54         7.5510   -3.5230   -1.2410 hc        1 MOL      0.081307
    129 H55         8.7550   -3.1430    1.1460 ha        1 MOL      0.123144
    130 H56         9.9430   -1.0170   -2.4670 ha        1 MOL      0.123144
    131 H57        10.9220   -2.4680    2.1480 ha        1 MOL      0.110271
    132 H58        11.9150   -0.2010   -1.2810 ha        1 MOL      0.110271
    133 H59        12.4820   -1.0870    0.9530 ha        1 MOL      0.087129
    134 N12         6.6790    0.5740   -1.8630 n         1 MOL     -0.076939
    135 C45         6.7440    2.0430   -1.8290 c3        1 MOL      0.032580
    136 C46         5.9120    2.7180   -0.6960 c         1 MOL      0.190017
    137 O20         6.2930    3.8350   -0.2610 o         1 MOL     -0.487613
    138 C47         6.2270    2.5080   -3.2140 c3        1 MOL     -0.088818
    139 C48         6.6850    1.3560   -4.1380 c3        1 MOL     -0.106392
    140 C49         6.4070    0.1470   -3.2930 c3        1 MOL      0.051217
    141 H60         7.7930    2.3170   -1.8410 h1        1 MOL      0.078055
    142 H61         5.1510    2.3650   -3.2450 hc        1 MOL      0.066835
    143 H62         6.6610    3.4660   -3.5200 hc        1 MOL      0.066835
    144 H63         6.0850    1.2510   -5.0420 hc        1 MOL      0.046022
    145 H64         7.7460    1.5200   -4.3380 hc        1 MOL      0.046022
    146 H65         5.3900   -0.1960   -3.4450 h1        1 MOL      0.019027
    147 H66         7.0790   -0.6370   -3.6230 h1        1 MOL      0.019027
    148 N13         4.8230    2.1440   -0.3160 n         1 MOL      0.027178
    149 C50         3.9050    2.6890    0.6780 c3        1 MOL     -0.220414
    150 C51         4.4990    2.4340    2.0660 c         1 MOL      0.508065
    151 O21         4.5000    3.3330    2.9070 o         1 MOL     -0.555393
    152 C52         2.5400    2.0780    0.5760 c3        1 MOL      0.051779
    153 C53         1.8960    2.0440   -0.8260 c3        1 MOL      0.003045
    154 C54         0.5220    1.4030   -0.8710 c         1 MOL      0.574340
    155 O22         0.1930    0.3940   -0.2420 o         1 MOL     -0.671908
    156 O23        -0.3590    1.8890   -1.6210 o         1 MOL     -0.671908
    157 H67         4.5860    1.2360   -0.6880 hn        1 MOL      0.138702
    158 H68         3.7910    3.7500    0.4800 h1        1 MOL      0.131221
    159 H69         1.8550    2.7220    1.1460 hc        1 MOL      0.027720
    160 H70         2.4580    1.1380    1.1200 hc        1 MOL      0.027720
    161 H71         2.6110    1.5100   -1.4620 hc        1 MOL     -0.008713
    162 H72         1.8350    3.0350   -1.2710 hc        1 MOL     -0.008713
    163 N14         5.1270    1.2690    2.2890 n         1 MOL     -0.053579
    164 C55         6.0070    0.9520    3.3930 c3        1 MOL     -0.234032
    165 H73         6.5550    0.0370    3.1700 h1        1 MOL      0.085548
    166 H74         6.7120    1.7710    3.5430 h1        1 MOL      0.085548
    167 H75         5.4180    0.8090    4.3000 h1        1 MOL      0.085548
    168 H76         5.0360    0.6210    1.5170 hn        1 MOL      0.059546
    169 Ca1        -1.9360   -0.3530   -1.6380 Ca        1 MOL      1.734351
    170 O24        -1.7970   -3.0120   -2.8070 oh        1 MOL     -1.033978
    171 H77        -0.8700   -3.1880   -2.9340 ho        1 MOL      0.451582
    172 H78        -2.1650   -2.9990   -3.6940 ho        1 MOL      0.451582
@<TRIPOS>BOND
     1    1    2 1   
     2    1    4 1   
     3    1    5 1   
     4    1    6 1   
     5    2    3 2   
     6    2    7 1   
     7    7    8 1   
     8    7   15 1   
     9    8    9 1   
    10    8   11 1   
    11    8   16 1   
    12    9   10 2   
    13    9   19 1   
    14   11   12 1   
    15   11   17 1   
    16   11   18 1   
    17   12   13 1   
    18   12   14 1   
    19   19   20 1   
    20   19   24 1   
    21   20   21 1   
    22   20   23 1   
    23   20   25 1   
    24   21   22 2   
    25   21   29 1   
    26   23   26 1   
    27   23   27 1   
    28   23   28 1   
    29   29   30 1   
    30   29   37 1   
    31   30   31 1   
    32   30   33 1   
    33   30   38 1   
    34   31   32 2   
    35   31   41 1   
    36   33   34 1   
    37   33   39 1   
    38   33   40 1   
    39   34   35 1   
    40   34   36 1   
    41   41   42 1   
    42   41   45 1   
    43   42   43 1   
    44   42   46 1   
    45   42   47 1   
    46   43   44 2   
    47   43   48 1   
    48   48   49 1   
    49   48   56 1   
    50   49   50 1   
    51   49   52 1   
    52   49   57 1   
    53   50   51 2   
    54   50   62 1   
    55   52   53 1   
    56   52   58 1   
    57   52   59 1   
    58   53   54 1   
    59   53   55 2   
    60   54   60 1   
    61   54   61 1   
    62   62   63 1   
    63   62   66 1   
    64   63   64 1   
    65   63   67 1   
    66   63   68 1   
    67   64   65 2   
    68   64   69 1   
    69   69   70 1   
    70   69   76 1   
    71   70   71 1   
    72   70   73 1   
    73   70   77 1   
    74   71   72 2   
    75   71   83 1   
    76   73   74 1   
    77   73   75 1   
    78   73   78 1   
    79   74   80 1   
    80   74   81 1   
    81   74   82 1   
    82   75   79 1   
    83   83   84 1   
    84   83   91 1   
    85   84   85 1   
    86   84   87 1   
    87   84   92 1   
    88   85   86 2   
    89   85  102 1   
    90   87   88 1   
    91   87   89 1   
    92   87   93 1   
    93   88   90 1   
    94   88   94 1   
    95   88   95 1   
    96   89   96 1   
    97   89   97 1   
    98   89   98 1   
    99   90   99 1   
   100   90  100 1   
   101   90  101 1   
   102  102  103 1   
   103  102  110 1   
   104  103  104 1   
   105  103  106 1   
   106  103  111 1   
   107  104  105 2   
   108  104  114 1   
   109  106  107 1   
   110  106  112 1   
   111  106  113 1   
   112  107  108 1   
   113  107  109 1   
   114  114  115 1   
   115  114  125 1   
   116  115  116 1   
   117  115  118 1   
   118  115  126 1   
   119  116  117 2   
   120  116  134 1   
   121  118  119 1   
   122  118  127 1   
   123  118  128 1   
   124  119  120 ar  
   125  119  121 ar  
   126  120  122 ar  
   127  120  129 1   
   128  121  123 ar  
   129  121  130 1   
   130  122  124 ar  
   131  122  131 1   
   132  123  124 ar  
   133  123  132 1   
   134  124  133 1   
   135  134  135 1   
   136  134  140 1   
   137  135  136 1   
   138  135  138 1   
   139  135  141 1   
   140  136  137 2   
   141  136  148 1   
   142  138  139 1   
   143  138  142 1   
   144  138  143 1   
   145  139  140 1   
   146  139  144 1   
   147  139  145 1   
   148  140  146 1   
   149  140  147 1   
   150  148  149 1   
   151  148  157 1   
   152  149  150 1   
   153  149  152 1   
   154  149  158 1   
   155  150  151 2   
   156  150  163 1   
   157  152  153 1   
   158  152  159 1   
   159  152  160 1   
   160  153  154 1   
   161  153  161 1   
   162  153  162 1   
   163  154  155 1   
   164  154  156 1   
   165  163  164 1   
   166  163  168 1   
   167  164  165 1   
   168  164  166 1   
   169  164  167 1   
   170  170  171 1   
   171  170  172 1   
@<TRIPOS>SUBSTRUCTURE
     1 MOL         1 TEMP              0 ****  ****    0 ROOT
