@<TRIPOS>MOLECULE
MOL
  189   185     1     0     0
SMALL
resp


@<TRIPOS>ATOM
      1 C1          0.2500   -4.5840    5.7390 c3        1 MOL     -0.304644
      2 C2          0.9170   -3.9430    4.4910 c         1 MOL      0.715501
      3 O1          1.1880   -2.7350    4.4880 o         1 MOL     -0.598903
      4 H1          0.7460   -4.2240    6.6400 hc        1 MOL      0.075380
      5 H2         -0.8040   -4.3090    5.7700 hc        1 MOL      0.075380
      6 H3          0.3420   -5.6690    5.6830 hc        1 MOL      0.075380
      7 N1          1.2850   -4.8160    3.5450 n         1 MOL     -0.667759
      8 C3          1.9780   -4.3640    2.3090 c3        1 MOL      0.304488
      9 C4          1.7870   -5.3570    1.2120 c         1 MOL      0.552038
     10 O2          1.6450   -6.5560    1.4380 o         1 MOL     -0.605410
     11 C5          3.5000   -4.1020    2.4980 c3        1 MOL     -0.294892
     12 C6          4.2170   -3.3120    1.4380 c         1 MOL      0.726301
     13 O3          5.4250   -3.3740    1.3390 o         1 MOL     -0.699023
     14 O4          3.6110   -2.5600    0.6730 o         1 MOL     -0.699023
     15 H4          1.0850   -5.7900    3.7060 hn        1 MOL      0.337625
     16 H5          1.5660   -3.4110    1.9780 h1        1 MOL      0.077062
     17 H6          3.9890   -5.0710    2.5070 hc        1 MOL      0.068938
     18 H7          3.6510   -3.6310    3.4710 hc        1 MOL      0.068938
     19 N2          1.7860   -4.8030   -0.0370 n         1 MOL     -0.243662
     20 C7          1.6510   -5.4150   -1.3600 c3        1 MOL     -0.004722
     21 C8          2.8260   -5.0930   -2.3190 c         1 MOL      0.542336
     22 O5          3.1010   -5.8890   -3.2210 o         1 MOL     -0.568201
     23 C9          0.2680   -5.0400   -1.9020 c3        1 MOL      0.309952
     24 C10        -0.8760   -5.4360   -0.9570 c3        1 MOL      0.039142
     25 C11         0.0980   -5.6390   -3.2820 c3        1 MOL     -0.471096
     26 C12        -2.3190   -5.0090   -1.3590 c3        1 MOL     -0.048293
     27 H8          1.6600   -3.7960    0.0050 hn        1 MOL     -0.091893
     28 H9          1.6760   -6.4970   -1.3050 h1        1 MOL      0.046354
     29 H10         0.2070   -3.9510   -1.9530 hc        1 MOL      0.001754
     30 H11        -0.7250   -5.0260    0.0440 hc        1 MOL     -0.032658
     31 H12        -0.8890   -6.5180   -0.8340 hc        1 MOL     -0.032658
     32 H13         0.4520   -6.6660   -3.2560 hc        1 MOL      0.102700
     33 H14        -0.8950   -5.3970   -3.6410 hc        1 MOL      0.102700
     34 H15         0.7890   -5.1500   -3.9740 hc        1 MOL      0.102700
     35 H16        -2.2690   -4.1190   -1.9880 hc        1 MOL      0.007973
     36 H17        -2.7730   -5.7680   -2.0140 hc        1 MOL      0.007973
     37 H18        -2.9660   -4.8010   -0.5130 hc        1 MOL      0.007973
     38 N3          3.4740   -3.9230   -2.1870 n         1 MOL     -0.488707
     39 C13         4.2760   -3.3270   -3.2780 c3        1 MOL      0.067684
     40 C14         5.6030   -2.6570   -2.9060 c         1 MOL      0.430358
     41 O6          6.3330   -2.2490   -3.8030 o         1 MOL     -0.571112
     42 C15         3.3780   -2.3900   -4.1150 c3        1 MOL     -0.102269
     43 C16         2.6760   -1.2810   -3.2460 c         1 MOL      0.736155
     44 O7          3.0220   -1.1010   -2.0420 o         1 MOL     -0.711636
     45 O8          1.7080   -0.6450   -3.6990 o         1 MOL     -0.711636
     46 H19         3.1680   -3.2640   -1.4820 hn        1 MOL      0.317723
     47 H20         4.5090   -4.1050   -4.0070 h1        1 MOL      0.084472
     48 H21         2.6330   -2.9490   -4.6850 hc        1 MOL      0.025800
     49 H22         4.0790   -1.8870   -4.7750 hc        1 MOL      0.025800
     50 N4          6.0450   -2.5980   -1.6900 n         1 MOL     -0.161194
     51 C17         7.3400   -2.2140   -1.2980 c3        1 MOL     -0.207067
     52 C18         7.6450   -0.7090   -1.3600 c         1 MOL      0.439525
     53 O9          8.7680   -0.2200   -1.1770 o         1 MOL     -0.594232
     54 H23         5.4630   -3.0740   -1.0170 hn        1 MOL      0.194218
     55 H24         8.0960   -2.8060   -1.8140 h1        1 MOL      0.113771
     56 H25         7.4050   -2.4360   -0.2290 h1        1 MOL      0.113771
     57 N5          6.5980    0.0670   -1.7200 n         1 MOL     -0.084801
     58 C19         6.7140    1.4510   -2.1550 c3        1 MOL      0.015243
     59 C20         7.0140    2.3680   -0.9340 c         1 MOL      0.390698
     60 O10         7.2800    3.5300   -1.1280 o         1 MOL     -0.515668
     61 C21         5.4850    1.9380   -2.8700 c3        1 MOL     -0.196264
     62 C22         4.1460    2.1040   -2.0190 c         1 MOL      0.756440
     63 O11         4.0020    1.4860   -0.9300 o         1 MOL     -0.705960
     64 O12         3.1790    2.8250   -2.4040 o         1 MOL     -0.705960
     65 H26         5.6980   -0.4050   -1.7380 hn        1 MOL      0.095961
     66 H27         7.5110    1.5750   -2.8890 h1        1 MOL      0.087273
     67 H28         5.1860    1.2610   -3.6730 hc        1 MOL      0.050960
     68 H29         5.7460    2.8810   -3.3550 hc        1 MOL      0.050960
     69 N6          6.8470    1.9330    0.3450 n         1 MOL     -0.179570
     70 C23         6.9440    2.8230    1.5320 c3        1 MOL     -0.308509
     71 C24         5.7090    3.7210    1.7180 c         1 MOL      0.612928
     72 O13         5.8060    4.7480    2.4230 o         1 MOL     -0.623789
     73 H30         6.6700    0.9600    0.5510 hn        1 MOL      0.188441
     74 H31         7.8810    3.3750    1.4010 h1        1 MOL      0.129958
     75 H32         7.0360    2.1320    2.3640 h1        1 MOL      0.129958
     76 N7          4.5410    3.5000    1.0830 n         1 MOL     -0.533420
     77 C25         3.2650    4.2680    1.4380 c3        1 MOL      0.255913
     78 C26         2.2020    3.2280    1.6860 c         1 MOL      0.427195
     79 O14         2.3460    2.0300    1.4570 o         1 MOL     -0.552043
     80 C27         2.9910    5.2500    0.3100 c3        1 MOL     -0.329130
     81 C28         4.1270    6.3350    0.1070 c3        1 MOL     -0.013247
     82 C29         3.7600    7.6230   -0.5640 c         1 MOL      0.644786
     83 N8          4.6700    8.5630   -0.5040 n         1 MOL     -0.811302
     84 O15         2.6720    7.9240   -0.9530 o         1 MOL     -0.560413
     85 H33         4.4730    2.7070    0.4610 hn        1 MOL      0.421784
     86 H34         3.2610    4.7440    2.4160 h1        1 MOL      0.032537
     87 H35         2.1720    5.8660    0.6730 hc        1 MOL      0.100912
     88 H36         2.7800    4.7240   -0.6280 hc        1 MOL      0.100912
     89 H37         4.9680    5.9570   -0.4800 hc        1 MOL      0.042140
     90 H38         4.5570    6.5110    1.0900 hc        1 MOL      0.042140
     91 H39         5.5800    8.2660   -0.2000 hn        1 MOL      0.346787
     92 H40         4.4660    9.4470   -0.9540 hn        1 MOL      0.346787
     93 N9          0.9980    3.7310    2.0590 n         1 MOL     -0.364880
     94 C30        -0.2520    3.0240    2.2590 c3        1 MOL      0.099715
     95 C31        -1.3350    3.3650    1.2360 c         1 MOL      0.379406
     96 O16        -1.8720    4.4670    1.2190 o         1 MOL     -0.552925
     97 C32        -0.6820    3.3330    3.7200 c3        1 MOL      0.250096
     98 C33        -1.9330    2.6260    4.0950 c3        1 MOL     -0.285049
     99 C34         0.4110    2.8880    4.6640 c3        1 MOL     -0.285049
    100 H41         0.9290    4.7050    2.3010 hn        1 MOL      0.236581
    101 H42        -0.0090    1.9680    2.1470 h1        1 MOL      0.062259
    102 H43        -0.8910    4.3980    3.7950 hc        1 MOL     -0.026439
    103 H44        -2.7520    2.7930    3.3960 hc        1 MOL      0.052912
    104 H45        -1.8200    1.5410    4.1180 hc        1 MOL      0.052912
    105 H46        -2.2120    2.9730    5.0880 hc        1 MOL      0.052912
    106 H47         1.3170    3.4680    4.4970 hc        1 MOL      0.052912
    107 H48         0.1860    3.1410    5.6970 hc        1 MOL      0.052912
    108 H49         0.7040    1.8450    4.5560 hc        1 MOL      0.052912
    109 N10        -1.6600    2.3180    0.4810 n         1 MOL     -0.185104
    110 C35        -2.8750    2.2760   -0.3330 c3        1 MOL     -0.006880
    111 C36        -4.1160    2.1280    0.5690 c         1 MOL      0.178467
    112 O17        -4.0760    1.5000    1.5970 o         1 MOL     -0.233648
    113 C37        -2.7080    1.0730   -1.2970 c3        1 MOL     -0.382652
    114 C38        -3.6960    1.2500   -2.3950 c         1 MOL      0.822859
    115 N11        -3.5500    2.1700   -3.2670 n         1 MOL     -0.750192
    116 O18        -4.7350    0.5640   -2.3520 o         1 MOL     -0.731675
    117 H50        -1.2000    1.4270    0.6530 hn        1 MOL      0.196745
    118 H51        -2.9170    3.2150   -0.8930 h1        1 MOL      0.106988
    119 H52        -2.9490    0.1210   -0.8120 hc        1 MOL      0.158907
    120 H53        -1.7100    1.0000   -1.7340 hc        1 MOL      0.158907
    121 H54        -2.8590    2.8920   -3.1760 hn        1 MOL      0.333339
    122 H55        -4.2590    2.3540   -3.9630 hn        1 MOL      0.333339
    123 N12        -5.3240    2.6150    0.1180 n         1 MOL     -0.158180
    124 C39        -6.6220    2.2450    0.7100 c3        1 MOL      0.106346
    125 C40        -6.7910    0.7610    0.9700 c         1 MOL      0.374975
    126 O19        -7.1020    0.3620    2.0810 o         1 MOL     -0.539993
    127 C41        -7.7730    2.9120   -0.0410 c3        1 MOL     -0.329017
    128 C42        -7.7210    2.9230   -1.5530 ca        1 MOL      0.068579
    129 C43        -7.2170    3.9730   -2.2890 ca        1 MOL     -0.130012
    130 C44        -8.0680    1.7380   -2.2200 ca        1 MOL     -0.130012
    131 C45        -7.0230    3.9040   -3.7190 ca        1 MOL     -0.301028
    132 C46        -7.9060    1.6120   -3.6270 ca        1 MOL     -0.301028
    133 C47        -7.3970    2.6830   -4.3590 ca        1 MOL      0.415970
    134 O20        -7.4470    2.6110   -5.7120 oh        1 MOL     -0.476476
    135 H56        -5.3310    3.1440   -0.7470 hn        1 MOL      0.120528
    136 H57        -6.6750    2.7010    1.7000 h1        1 MOL      0.055213
    137 H58        -7.7970    3.9370    0.3020 hc        1 MOL      0.112360
    138 H59        -8.6840    2.3710    0.2240 hc        1 MOL      0.112360
    139 H60        -6.7260    4.7920   -1.7740 ha        1 MOL      0.095902
    140 H61        -8.3790    0.8890   -1.6340 ha        1 MOL      0.095902
    141 H62        -6.6790    4.7510   -4.3030 ha        1 MOL      0.121548
    142 H63        -8.1210    0.6940   -4.1610 ha        1 MOL      0.121548
    143 H64        -7.0690    3.3580   -6.1790 ho        1 MOL      0.328812
    144 N13        -6.5350   -0.1140   -0.0100 n         1 MOL     -0.369549
    145 C48        -6.6010   -1.6290    0.1310 c3        1 MOL     -0.188500
    146 C49        -5.5620   -2.0500    1.2520 c         1 MOL      0.501527
    147 O21        -5.7280   -3.1460    1.7970 o         1 MOL     -0.554706
    148 C50        -6.2580   -2.2910   -1.1410 c3        1 MOL     -0.051223
    149 C51        -7.1650   -1.9220   -2.3610 c3        1 MOL     -0.029507
    150 C52        -8.5900   -2.2830   -2.0930 c         1 MOL      0.633139
    151 O22        -9.5040   -1.5130   -2.5020 o         1 MOL     -0.706593
    152 O23        -8.8480   -3.3440   -1.5320 o         1 MOL     -0.706593
    153 H65        -6.2900    0.3180   -0.8930 hn        1 MOL      0.657122
    154 H66        -7.6020   -1.8850    0.4660 h1        1 MOL      0.179371
    155 H67        -6.1840   -3.3620   -0.9530 hc        1 MOL      0.020559
    156 H68        -5.2610   -2.0110   -1.4770 hc        1 MOL      0.020559
    157 H69        -6.9530   -2.4960   -3.2570 hc        1 MOL      0.006870
    158 H70        -7.1310   -0.8700   -2.6480 hc        1 MOL      0.006870
    159 N14        -4.5220   -1.3040    1.6730 n         1 MOL     -0.061546
    160 C53        -3.5600   -1.6710    2.7280 c3        1 MOL     -0.069913
    161 C54        -4.0360   -1.1040    4.0570 c         1 MOL      0.426151
    162 O24        -3.8620   -1.7730    5.0760 o         1 MOL     -0.570475
    163 C55        -2.1490   -1.2690    2.3780 c3        1 MOL      0.049613
    164 C56        -1.5320   -1.9800    1.0540 c3        1 MOL     -0.177691
    165 C57        -0.2330   -1.3510    0.5460 c         1 MOL      0.533761
    166 O25         0.6100   -2.0060   -0.0580 o         1 MOL     -0.548623
    167 O26        -0.0750   -0.1000    0.6890 o         1 MOL     -0.548623
    168 H71        -4.2880   -0.4640    1.1760 hn        1 MOL     -0.041317
    169 H72        -3.3960   -2.7480    2.7910 h1        1 MOL      0.079042
    170 H73        -1.5940   -1.4390    3.2970 hc        1 MOL      0.012022
    171 H74        -2.1170   -0.1890    2.2410 hc        1 MOL      0.012022
    172 H75        -2.2940   -2.0630    0.2780 hc        1 MOL      0.068298
    173 H76        -1.3300   -3.0270    1.2600 hc        1 MOL      0.068298
    174 N15        -4.6290    0.0860    4.1070 n         1 MOL      0.007329
    175 C58        -5.1170    0.7430    5.2740 c3        1 MOL     -0.172139
    176 H77        -6.1940    0.5910    5.3520 h1        1 MOL      0.056897
    177 H78        -4.6290    0.3290    6.1560 h1        1 MOL      0.056897
    178 H79        -4.9050    1.8100    5.2070 h1        1 MOL      0.056897
    179 H80        -4.8730    0.5450    3.2450 hn        1 MOL      0.082684
    180 Ca1         2.5540   -0.2440    0.1770 Ca        1 MOL      1.724804
    181 O27         2.1730   -0.6280    2.9560 oh        1 MOL     -0.944851
    182 H81         1.7670   -1.2650    3.5380 ho        1 MOL      0.439687
    183 H82         2.4410    0.0830    3.5320 ho        1 MOL      0.439687
    184 O28         4.9890   -0.2760    1.3570 oh        1 MOL     -0.944851
    185 H83         4.8560   -1.2210    1.2190 ho        1 MOL      0.439687
    186 H84         5.7430   -0.2360    1.9500 ho        1 MOL      0.439687
    187 O29         1.0700    1.1900   -1.6780 oh        1 MOL     -0.944851
    188 H85         1.7240    1.8750   -1.8420 ho        1 MOL      0.439687
    189 H86         1.1780    0.5830   -2.4040 ho        1 MOL      0.439687
@<TRIPOS>BOND
     1    1    2 1   
     2    1    4 1   
     3    1    5 1   
     4    1    6 1   
     5    2    3 2   
     6    2    7 1   
     7    7    8 1   
     8    7   15 1   
     9    8    9 1   
    10    8   11 1   
    11    8   16 1   
    12    9   10 2   
    13    9   19 1   
    14   11   12 1   
    15   11   17 1   
    16   11   18 1   
    17   12   13 1   
    18   12   14 1   
    19   19   20 1   
    20   19   27 1   
    21   20   21 1   
    22   20   23 1   
    23   20   28 1   
    24   21   22 2   
    25   21   38 1   
    26   23   24 1   
    27   23   25 1   
    28   23   29 1   
    29   24   26 1   
    30   24   30 1   
    31   24   31 1   
    32   25   32 1   
    33   25   33 1   
    34   25   34 1   
    35   26   35 1   
    36   26   36 1   
    37   26   37 1   
    38   38   39 1   
    39   38   46 1   
    40   39   40 1   
    41   39   42 1   
    42   39   47 1   
    43   40   41 2   
    44   40   50 1   
    45   42   43 1   
    46   42   48 1   
    47   42   49 1   
    48   43   44 1   
    49   43   45 1   
    50   50   51 1   
    51   50   54 1   
    52   51   52 1   
    53   51   55 1   
    54   51   56 1   
    55   52   53 2   
    56   52   57 1   
    57   57   58 1   
    58   57   65 1   
    59   58   59 1   
    60   58   61 1   
    61   58   66 1   
    62   59   60 2   
    63   59   69 1   
    64   61   62 1   
    65   61   67 1   
    66   61   68 1   
    67   62   63 1   
    68   62   64 1   
    69   69   70 1   
    70   69   73 1   
    71   70   71 1   
    72   70   74 1   
    73   70   75 1   
    74   71   72 2   
    75   71   76 1   
    76   76   77 1   
    77   76   85 1   
    78   77   78 1   
    79   77   80 1   
    80   77   86 1   
    81   78   79 2   
    82   78   93 1   
    83   80   81 1   
    84   80   87 1   
    85   80   88 1   
    86   81   82 1   
    87   81   89 1   
    88   81   90 1   
    89   82   83 1   
    90   82   84 2   
    91   83   91 1   
    92   83   92 1   
    93   93   94 1   
    94   93  100 1   
    95   94   95 1   
    96   94   97 1   
    97   94  101 1   
    98   95   96 2   
    99   95  109 1   
   100   97   98 1   
   101   97   99 1   
   102   97  102 1   
   103   98  103 1   
   104   98  104 1   
   105   98  105 1   
   106   99  106 1   
   107   99  107 1   
   108   99  108 1   
   109  109  110 1   
   110  109  117 1   
   111  110  111 1   
   112  110  113 1   
   113  110  118 1   
   114  111  112 2   
   115  111  123 1   
   116  113  114 1   
   117  113  119 1   
   118  113  120 1   
   119  114  115 1   
   120  114  116 2   
   121  115  121 1   
   122  115  122 1   
   123  123  124 1   
   124  123  135 1   
   125  124  125 1   
   126  124  127 1   
   127  124  136 1   
   128  125  126 2   
   129  125  144 1   
   130  127  128 1   
   131  127  137 1   
   132  127  138 1   
   133  128  129 ar  
   134  128  130 ar  
   135  129  131 ar  
   136  129  139 1   
   137  130  132 ar  
   138  130  140 1   
   139  131  133 ar  
   140  131  141 1   
   141  132  133 ar  
   142  132  142 1   
   143  133  134 1   
   144  134  143 1   
   145  144  145 1   
   146  144  153 1   
   147  145  146 1   
   148  145  148 1   
   149  145  154 1   
   150  146  147 2   
   151  146  159 1   
   152  148  149 1   
   153  148  155 1   
   154  148  156 1   
   155  149  150 1   
   156  149  157 1   
   157  149  158 1   
   158  150  151 1   
   159  150  152 1   
   160  159  160 1   
   161  159  168 1   
   162  160  161 1   
   163  160  163 1   
   164  160  169 1   
   165  161  162 2   
   166  161  174 1   
   167  163  164 1   
   168  163  170 1   
   169  163  171 1   
   170  164  165 1   
   171  164  172 1   
   172  164  173 1   
   173  165  166 1   
   174  165  167 1   
   175  174  175 1   
   176  174  179 1   
   177  175  176 1   
   178  175  177 1   
   179  175  178 1   
   180  181  182 1   
   181  181  183 1   
   182  184  185 1   
   183  184  186 1   
   184  187  188 1   
   185  187  189 1   
@<TRIPOS>SUBSTRUCTURE
     1 MOL         1 TEMP              0 ****  ****    0 ROOT
