@<TRIPOS>MOLECULE
MOL
  176   174     1     0     0
SMALL
resp


@<TRIPOS>ATOM
      1 C1          0.1790   -5.1670    5.9820 c3        1 MOL     -0.322461
      2 C2          0.0910   -4.3740    4.6590 c         1 MOL      0.745277
      3 O1         -0.9850   -4.3520    4.1390 o         1 MOL     -0.559124
      4 H1         -0.7930   -5.6040    6.2080 hc        1 MOL      0.077933
      5 H2          0.9210   -5.9590    5.8830 hc        1 MOL      0.077933
      6 H3          0.4720   -4.4950    6.7890 hc        1 MOL      0.077933
      7 N1          1.2600   -3.9220    4.1370 n         1 MOL     -0.642214
      8 C3          1.4930   -3.4580    2.7680 c3        1 MOL      0.098090
      9 C4          1.7640   -4.6060    1.7910 c         1 MOL      0.568851
     10 O2          2.5880   -5.5200    1.9570 o         1 MOL     -0.572675
     11 C5          2.6850   -2.4810    2.8930 c3        1 MOL      0.080305
     12 C6          2.6010   -1.5110    1.7230 c         1 MOL      0.797395
     13 O3          2.4560   -0.2670    1.8820 o         1 MOL     -0.801684
     14 O4          2.7570   -1.9640    0.5260 o         1 MOL     -0.801684
     15 H4          2.0560   -3.9730    4.7650 hn        1 MOL      0.307208
     16 H5          0.5860   -2.9020    2.5220 h1        1 MOL      0.031583
     17 H6          3.6580   -2.9600    3.0120 hc        1 MOL     -0.003892
     18 H7          2.5760   -1.8610    3.7860 hc        1 MOL     -0.003892
     19 N2          1.0750   -4.6060    0.6390 n         1 MOL     -0.295991
     20 C7          1.2150   -5.5960   -0.4580 c3        1 MOL     -0.089874
     21 C8          2.5000   -5.4230   -1.2740 c         1 MOL      0.523815
     22 O5          2.8140   -6.2710   -2.0950 o         1 MOL     -0.540805
     23 C9         -0.0540   -5.4940   -1.4080 c3        1 MOL     -0.218197
     24 C10        -0.1690   -4.2730   -2.3560 c3        1 MOL      0.068966
     25 C11        -1.4160   -4.1680   -3.2600 c3        1 MOL     -0.006184
     26 C12        -1.6820   -2.7770   -3.8670 c3        1 MOL      0.163874
     27 N3         -0.4860   -2.1810   -4.5390 n4        1 MOL     -0.481127
     28 H8          0.5120   -3.7760    0.5420 hn        1 MOL      0.183426
     29 H9          1.1940   -6.5750    0.0240 h1        1 MOL      0.151548
     30 H10        -0.9710   -5.6200   -0.8300 hc        1 MOL      0.087359
     31 H11         0.0580   -6.3050   -2.1240 hc        1 MOL      0.087359
     32 H12         0.6990   -4.2940   -3.0160 hc        1 MOL      0.036972
     33 H13        -0.1150   -3.3500   -1.7750 hc        1 MOL      0.036972
     34 H14        -2.2880   -4.3400   -2.6390 hc        1 MOL      0.014635
     35 H15        -1.4090   -4.8900   -4.0880 hc        1 MOL      0.014635
     36 H16        -1.9470   -2.1670   -3.0130 hx        1 MOL      0.028763
     37 H17        -2.6410   -2.8700   -4.3900 hx        1 MOL      0.028763
     38 H18         0.2440   -2.0120   -3.8550 hn        1 MOL      0.337345
     39 H19        -0.0650   -2.7770   -5.2390 hn        1 MOL      0.337345
     40 H20        -0.6210   -1.2760   -4.9540 hn        1 MOL      0.337345
     41 N4          3.2520   -4.3180   -1.1530 n         1 MOL     -0.301845
     42 C13         4.3330   -3.9470   -2.0080 c3        1 MOL     -0.019764
     43 C14         5.5740   -3.3110   -1.2950 c         1 MOL      0.487255
     44 O6          6.6630   -3.2070   -1.8870 o         1 MOL     -0.545155
     45 C15         3.7820   -3.0580   -3.1500 c3        1 MOL     -0.066414
     46 C16         3.0860   -1.8630   -2.6210 c         1 MOL      0.844278
     47 O7          3.6930   -0.9340   -2.0650 o         1 MOL     -0.896242
     48 O8          1.8630   -1.8720   -2.6210 o         1 MOL     -0.896242
     49 H21         2.8650   -3.5770   -0.5750 hn        1 MOL      0.234349
     50 H22         4.7490   -4.8960   -2.3520 h1        1 MOL      0.112794
     51 H23         3.0460   -3.6800   -3.6490 hc        1 MOL      0.021264
     52 H24         4.5600   -2.7860   -3.8760 hc        1 MOL      0.021264
     53 N5          5.3270   -2.8120   -0.0860 n         1 MOL     -0.196275
     54 C17         6.2090   -2.0530    0.8100 c3        1 MOL     -0.116212
     55 C18         6.6390   -0.6250    0.4800 c         1 MOL      0.693967
     56 O9          7.6030   -0.1860    1.1040 o         1 MOL     -0.601078
     57 H25         4.3750   -2.8320    0.2250 hn        1 MOL      0.079746
     58 H26         7.1380   -2.6160    0.8740 h1        1 MOL      0.081159
     59 H27         5.8150   -1.9320    1.8130 h1        1 MOL      0.081159
     60 N6          5.9220    0.1100   -0.3790 n         1 MOL     -0.676997
     61 C19         6.4110    1.3670   -0.9740 c3        1 MOL      0.316303
     62 C20         6.3630    2.5870    0.0320 c         1 MOL      0.378031
     63 O10         6.8860    3.6280   -0.3100 o         1 MOL     -0.497640
     64 C21         5.5680    1.6550   -2.2380 c3        1 MOL     -0.727541
     65 C22         4.1470    2.1560   -2.0600 c         1 MOL      1.012890
     66 N7          3.5150    2.4720   -3.1540 n         1 MOL     -0.691603
     67 O11         3.5620    2.0580   -1.0240 o         1 MOL     -0.759409
     68 H28         5.1670   -0.3900   -0.8170 hn        1 MOL      0.444210
     69 H29         7.4620    1.2950   -1.2340 h1        1 MOL      0.099586
     70 H30         5.5070    0.7210   -2.8060 hc        1 MOL      0.194907
     71 H31         6.0860    2.4550   -2.7810 hc        1 MOL      0.194907
     72 H32         4.0480    2.4550   -4.0140 hn        1 MOL      0.308711
     73 H33         2.5450    2.7340   -3.1780 hn        1 MOL      0.308711
     74 N8          5.9020    2.4490    1.3280 n         1 MOL     -0.317498
     75 C23         5.7320    3.6760    2.1900 c3        1 MOL     -0.023176
     76 C24         4.4050    4.2710    2.3460 c         1 MOL      0.458183
     77 O12         4.2320    5.0050    3.3640 o         1 MOL     -0.556699
     78 H34         5.5340    1.5430    1.6090 hn        1 MOL      0.263032
     79 H35         6.4010    4.4400    1.7740 h1        1 MOL      0.091632
     80 H36         6.1340    3.4440    3.1750 h1        1 MOL      0.091632
     81 N9          3.3710    3.8520    1.5830 n         1 MOL     -0.275180
     82 C25         1.9470    4.1420    1.9510 c3        1 MOL     -0.008124
     83 C26         0.8890    3.1450    1.4800 c         1 MOL      0.659069
     84 O13         0.9890    2.4370    0.4280 o         1 MOL     -0.645911
     85 C27         1.6390    5.5560    1.4580 c3        1 MOL     -0.130342
     86 C28         1.5940    5.6390   -0.0610 ca        1 MOL      0.088105
     87 C29         0.4070    5.4240   -0.8260 ca        1 MOL     -0.175072
     88 C30         2.7550    5.9300   -0.7880 ca        1 MOL     -0.175072
     89 C31         0.3940    5.5240   -2.2300 ca        1 MOL     -0.257752
     90 C32         2.7600    5.9910   -2.2050 ca        1 MOL     -0.257752
     91 C33         1.5330    5.9260   -2.9060 ca        1 MOL      0.310728
     92 O14         1.4810    5.9770   -4.2660 oh        1 MOL     -0.481917
     93 H37         3.5500    3.2990    0.7600 hn        1 MOL      0.259477
     94 H38         1.8610    4.1520    3.0430 h1        1 MOL      0.088969
     95 H39         2.4110    6.2340    1.8290 hc        1 MOL      0.067359
     96 H40         0.6980    5.9110    1.8570 hc        1 MOL      0.067359
     97 H41        -0.5410    5.1170   -0.4250 ha        1 MOL      0.161279
     98 H42         3.6700    6.0420   -0.2330 ha        1 MOL      0.161279
     99 H43        -0.4870    5.3420   -2.8200 ha        1 MOL      0.142486
    100 H44         3.7050    6.0910   -2.7170 ha        1 MOL      0.142486
    101 H45         0.5650    5.9690   -4.5460 ho        1 MOL      0.344019
    102 N10        -0.0760    2.9900    2.3330 n         1 MOL     -0.611819
    103 C34        -1.2960    2.1830    2.2050 c3        1 MOL      0.250962
    104 C35        -2.3630    3.1000    1.7210 c         1 MOL      0.466639
    105 O15        -2.4060    4.3000    1.9060 o         1 MOL     -0.532786
    106 C36        -1.6800    1.1460    3.2880 c3        1 MOL      0.134278
    107 C37        -2.1990    1.7350    4.5750 c3        1 MOL     -0.267306
    108 C38        -0.6310    0.0640    3.4970 c3        1 MOL     -0.204623
    109 C39        -3.6920    2.1570    4.6310 c3        1 MOL     -0.141280
    110 H46         0.0610    3.4330    3.2330 hn        1 MOL      0.321218
    111 H47        -1.0200    1.5530    1.3500 h1        1 MOL      0.038880
    112 H48        -2.5250    0.6590    2.7900 hc        1 MOL      0.032988
    113 H49        -1.5890    2.5650    4.9390 hc        1 MOL      0.093207
    114 H50        -2.1680    0.9730    5.3510 hc        1 MOL      0.093207
    115 H51        -0.5340   -0.5470    2.5950 hc        1 MOL      0.059927
    116 H52         0.3300    0.5580    3.6210 hc        1 MOL      0.059927
    117 H53        -0.7710   -0.6330    4.3360 hc        1 MOL      0.059927
    118 H54        -4.0030    2.8970    3.8910 hc        1 MOL      0.047821
    119 H55        -4.2190    1.2550    4.3320 hc        1 MOL      0.047821
    120 H56        -3.9870    2.3540    5.6640 hc        1 MOL      0.047821
    121 N11        -3.3660    2.6040    0.9860 n         1 MOL     -0.218491
    122 C40        -4.6190    3.3580    0.6350 c3        1 MOL     -0.028383
    123 C41        -5.7410    2.2900    0.4140 c         1 MOL      0.474951
    124 O16        -5.4910    1.0770    0.5670 o         1 MOL     -0.406548
    125 C42        -4.3780    4.1880   -0.6560 c3        1 MOL      0.099639
    126 O17        -4.0420    3.3080   -1.7400 oh        1 MOL     -0.583453
    127 H57        -3.4880    1.6160    0.7900 hn        1 MOL      0.040906
    128 H58        -4.9690    4.0410    1.4130 h1        1 MOL      0.083919
    129 H59        -3.5660    4.9050   -0.5160 h1        1 MOL      0.040313
    130 H60        -5.2790    4.7540   -0.8830 h1        1 MOL      0.040313
    131 H61        -3.0840    3.3720   -1.7960 ho        1 MOL      0.389782
    132 N12        -6.9570    2.7580    0.1230 n         1 MOL     -0.420099
    133 C43        -8.2060    1.9000    0.2240 c3        1 MOL      0.094550
    134 C44        -8.0430    0.5400   -0.4920 c         1 MOL      0.516842
    135 O18        -8.2400   -0.4770    0.2160 o         1 MOL     -0.511708
    136 C45        -9.4380    2.6090   -0.2440 c3        1 MOL     -0.258713
    137 H62        -7.0970    3.7460   -0.0360 hn        1 MOL      0.291015
    138 H63        -8.3010    1.7890    1.3050 h1        1 MOL      0.090291
    139 H64        -9.6780    3.5540    0.2500 hc        1 MOL      0.085451
    140 H65        -9.2660    2.8460   -1.2920 hc        1 MOL      0.085451
    141 H66       -10.3270    1.9770   -0.2020 hc        1 MOL      0.085451
    142 N13        -7.8100    0.4350   -1.8150 n         1 MOL     -0.468906
    143 C46        -7.8470   -0.9220   -2.4680 c3        1 MOL      0.113715
    144 C47        -6.7690   -1.9050   -1.9100 c         1 MOL      0.385383
    145 O19        -6.9900   -3.1280   -1.7000 o         1 MOL     -0.497624
    146 C48        -7.7950   -0.6720   -3.9510 c3        1 MOL     -0.279228
    147 H67        -7.6010    1.2490   -2.3900 hn        1 MOL      0.310171
    148 H68        -8.8090   -1.3770   -2.2100 h1        1 MOL      0.106956
    149 H69        -7.5520   -1.6170   -4.4350 hc        1 MOL      0.078703
    150 H70        -8.6650   -0.2060   -4.4190 hc        1 MOL      0.078703
    151 H71        -6.9750    0.0070   -4.2050 hc        1 MOL      0.078703
    152 N14        -5.6510   -1.3190   -1.5020 n         1 MOL     -0.162468
    153 C49        -4.6890   -2.0460   -0.7310 c3        1 MOL     -0.216735
    154 C50        -5.1320   -2.5100    0.6640 c         1 MOL      0.644928
    155 O20        -4.8080   -3.5330    1.1490 o         1 MOL     -0.544727
    156 C51        -3.4470   -1.2230   -0.7140 c3        1 MOL     -0.000918
    157 C52        -2.4040   -1.7980    0.2220 c3        1 MOL      0.619062
    158 C53        -1.0700   -1.1830   -0.2090 c         1 MOL      0.354885
    159 O21        -0.9490   -0.0230   -0.7920 o         1 MOL     -0.675944
    160 O22        -0.0890   -1.8060    0.2290 o         1 MOL     -0.675944
    161 H72        -5.3510   -0.4070   -1.8060 hn        1 MOL      0.179723
    162 H73        -4.5490   -3.0160   -1.2170 h1        1 MOL      0.087364
    163 H74        -3.6870   -0.1720   -0.5070 hc        1 MOL     -0.025044
    164 H75        -3.1070   -1.2480   -1.7490 hc        1 MOL     -0.025044
    165 H76        -2.3570   -2.8820    0.1430 hc        1 MOL     -0.126459
    166 H77        -2.7150   -1.4040    1.1850 hc        1 MOL     -0.126459
    167 N15        -5.7730   -1.5420    1.4000 n         1 MOL     -0.168999
    168 C54        -6.3670   -1.9310    2.6330 c3        1 MOL     -0.374241
    169 H78        -7.3700   -2.3120    2.4490 h1        1 MOL      0.126460
    170 H79        -5.7620   -2.7100    3.0980 h1        1 MOL      0.126460
    171 H80        -6.4230   -1.0690    3.2980 h1        1 MOL      0.126460
    172 H81        -5.9810   -0.6060    1.0650 hn        1 MOL      0.168541
    173 Ca1         1.7370    0.0310   -0.7130 Ca        1 MOL      1.815837
    174 O23         0.8270    1.1010   -3.1080 oh        1 MOL     -0.779423
    175 H82        -0.0410    1.1390   -3.5080 ho        1 MOL      0.390157
    176 H83         1.4220    0.9230   -3.8390 ho        1 MOL      0.390157
@<TRIPOS>BOND
     1    1    2 1   
     2    1    4 1   
     3    1    5 1   
     4    1    6 1   
     5    2    3 2   
     6    2    7 1   
     7    7    8 1   
     8    7   15 1   
     9    8    9 1   
    10    8   11 1   
    11    8   16 1   
    12    9   10 2   
    13    9   19 1   
    14   11   12 1   
    15   11   17 1   
    16   11   18 1   
    17   12   13 1   
    18   12   14 1   
    19   19   20 1   
    20   19   28 1   
    21   20   21 1   
    22   20   23 1   
    23   20   29 1   
    24   21   22 2   
    25   21   41 1   
    26   23   24 1   
    27   23   30 1   
    28   23   31 1   
    29   24   25 1   
    30   24   32 1   
    31   24   33 1   
    32   25   26 1   
    33   25   34 1   
    34   25   35 1   
    35   26   27 1   
    36   26   36 1   
    37   26   37 1   
    38   27   38 1   
    39   27   39 1   
    40   27   40 1   
    41   41   42 1   
    42   41   49 1   
    43   42   43 1   
    44   42   45 1   
    45   42   50 1   
    46   43   44 2   
    47   43   53 1   
    48   45   46 1   
    49   45   51 1   
    50   45   52 1   
    51   46   47 1   
    52   46   48 1   
    53   53   54 1   
    54   53   57 1   
    55   54   55 1   
    56   54   58 1   
    57   54   59 1   
    58   55   56 2   
    59   55   60 1   
    60   60   61 1   
    61   60   68 1   
    62   61   62 1   
    63   61   64 1   
    64   61   69 1   
    65   62   63 2   
    66   62   74 1   
    67   64   65 1   
    68   64   70 1   
    69   64   71 1   
    70   65   66 1   
    71   65   67 2   
    72   66   72 1   
    73   66   73 1   
    74   74   75 1   
    75   74   78 1   
    76   75   76 1   
    77   75   79 1   
    78   75   80 1   
    79   76   77 2   
    80   76   81 1   
    81   81   82 1   
    82   81   93 1   
    83   82   83 1   
    84   82   85 1   
    85   82   94 1   
    86   83   84 2   
    87   83  102 1   
    88   85   86 1   
    89   85   95 1   
    90   85   96 1   
    91   86   87 ar  
    92   86   88 ar  
    93   87   89 ar  
    94   87   97 1   
    95   88   90 ar  
    96   88   98 1   
    97   89   91 ar  
    98   89   99 1   
    99   90   91 ar  
   100   90  100 1   
   101   91   92 1   
   102   92  101 1   
   103  102  103 1   
   104  102  110 1   
   105  103  104 1   
   106  103  106 1   
   107  103  111 1   
   108  104  105 2   
   109  104  121 1   
   110  106  107 1   
   111  106  108 1   
   112  106  112 1   
   113  107  109 1   
   114  107  113 1   
   115  107  114 1   
   116  108  115 1   
   117  108  116 1   
   118  108  117 1   
   119  109  118 1   
   120  109  119 1   
   121  109  120 1   
   122  121  122 1   
   123  121  127 1   
   124  122  123 1   
   125  122  125 1   
   126  122  128 1   
   127  123  124 2   
   128  123  132 1   
   129  125  126 1   
   130  125  129 1   
   131  125  130 1   
   132  126  131 1   
   133  132  133 1   
   134  132  137 1   
   135  133  134 1   
   136  133  136 1   
   137  133  138 1   
   138  134  135 2   
   139  134  142 1   
   140  136  139 1   
   141  136  140 1   
   142  136  141 1   
   143  142  143 1   
   144  142  147 1   
   145  143  144 1   
   146  143  146 1   
   147  143  148 1   
   148  144  145 2   
   149  144  152 1   
   150  146  149 1   
   151  146  150 1   
   152  146  151 1   
   153  152  153 1   
   154  152  161 1   
   155  153  154 1   
   156  153  156 1   
   157  153  162 1   
   158  154  155 2   
   159  154  167 1   
   160  156  157 1   
   161  156  163 1   
   162  156  164 1   
   163  157  158 1   
   164  157  165 1   
   165  157  166 1   
   166  158  159 1   
   167  158  160 1   
   168  167  168 1   
   169  167  172 1   
   170  168  169 1   
   171  168  170 1   
   172  168  171 1   
   173  174  175 1   
   174  174  176 1   
@<TRIPOS>SUBSTRUCTURE
     1 MOL         1 TEMP              0 ****  ****    0 ROOT
