@<TRIPOS>MOLECULE
MOL
  189   185     1     0     0
SMALL
resp


@<TRIPOS>ATOM
      1 C1         -0.4220    2.1350    6.1300 c3        1 MOL     -0.450879
      2 C2         -0.6810    1.7880    4.6710 c         1 MOL      0.672070
      3 O1          0.1750    1.8700    3.7630 o         1 MOL     -0.607773
      4 H1          0.4440    1.5780    6.4870 hc        1 MOL      0.120846
      5 H2         -0.2280    3.2040    6.2200 hc        1 MOL      0.120846
      6 H3         -1.2950    1.8710    6.7270 hc        1 MOL      0.120846
      7 N1         -1.9420    1.4700    4.3160 n         1 MOL     -0.469494
      8 C3         -2.3340    1.2250    2.9290 c3        1 MOL      0.074071
      9 C4         -2.7020    2.5920    2.3110 c         1 MOL      0.436211
     10 O2         -3.7300    3.1950    2.5840 o         1 MOL     -0.516491
     11 C5         -3.5300    0.1980    2.7780 c3        1 MOL     -0.127462
     12 C6         -4.1930    0.1000    1.3560 c         1 MOL      0.856583
     13 O3         -5.4200   -0.0460    1.3970 o         1 MOL     -0.692933
     14 O4         -3.5260    0.2990    0.2930 o         1 MOL     -0.692933
     15 H4         -2.6430    1.2690    5.0220 hn        1 MOL      0.303527
     16 H5         -1.5050    0.8280    2.3450 h1        1 MOL     -0.028509
     17 H6         -4.3370    0.4680    3.4560 hc        1 MOL      0.010425
     18 H7         -3.2910   -0.8510    2.9990 hc        1 MOL      0.010425
     19 N2         -1.7830    3.0840    1.4190 n         1 MOL     -0.348153
     20 C7         -1.8170    4.4670    0.9920 c3        1 MOL     -0.032830
     21 C8         -2.8740    4.7360   -0.0630 c         1 MOL      0.393988
     22 O5         -3.2970    5.9190   -0.2210 o         1 MOL     -0.558368
     23 C9         -0.3580    4.7860    0.5210 c3        1 MOL      0.061205
     24 C10        -0.1560    6.1330   -0.2270 c3        1 MOL      0.022139
     25 C11        -0.4560    7.3830    0.6680 c3        1 MOL      0.033633
     26 C12         0.4200    7.4830    1.9490 c3        1 MOL      0.078075
     27 N3          0.1370    8.5950    2.8480 n4        1 MOL     -0.409197
     28 H8         -0.9770    2.5370    1.1490 hn        1 MOL      0.337787
     29 H9         -1.9570    5.0900    1.8790 h1        1 MOL      0.080679
     30 H10         0.0120    3.9380   -0.0680 hc        1 MOL     -0.021721
     31 H11         0.3130    4.6760    1.3820 hc        1 MOL     -0.021721
     32 H12        -0.6530    6.1410   -1.1910 hc        1 MOL      0.004798
     33 H13         0.9050    6.2730   -0.4500 hc        1 MOL      0.004798
     34 H14        -1.4920    7.2650    1.0020 hc        1 MOL      0.001663
     35 H15        -0.3550    8.3110    0.1160 hc        1 MOL      0.001663
     36 H16         1.4340    7.5150    1.5670 hx        1 MOL      0.059441
     37 H17         0.2850    6.5690    2.5260 hx        1 MOL      0.059441
     38 H18         0.2580    9.4690    2.3560 hn        1 MOL      0.336808
     39 H19        -0.7680    8.6200    3.2940 hn        1 MOL      0.336808
     40 H20         0.7340    8.6320    3.6520 hn        1 MOL      0.336808
     41 N4         -3.1810    3.7380   -0.9080 n         1 MOL     -0.144258
     42 C13        -4.0350    3.9200   -2.1970 c3        1 MOL     -0.004872
     43 C14        -5.2360    2.9350   -2.2970 c         1 MOL      0.570660
     44 O6         -5.9080    2.8610   -3.3310 o         1 MOL     -0.541730
     45 C15        -3.1090    3.8500   -3.4070 c3        1 MOL     -0.045338
     46 C16        -2.2100    2.6060   -3.5040 c         1 MOL      0.814766
     47 O7         -1.4490    2.5150   -4.4960 o         1 MOL     -0.742795
     48 O8         -2.4000    1.7000   -2.7230 o         1 MOL     -0.742795
     49 H21        -2.6880    2.8680   -0.7650 hn        1 MOL      0.050566
     50 H22        -4.4610    4.9180   -2.1800 h1        1 MOL      0.073772
     51 H23        -2.4550    4.7270   -3.3560 hc        1 MOL      0.005241
     52 H24        -3.6590    3.9510   -4.3450 hc        1 MOL      0.005241
     53 N5         -5.5460    2.2690   -1.1800 n         1 MOL     -0.409310
     54 C17        -6.9020    1.9400   -0.8020 c3        1 MOL     -0.359617
     55 C18        -7.4890    0.6280   -1.2820 c         1 MOL      0.564979
     56 O9         -8.6230    0.2750   -0.9510 o         1 MOL     -0.595815
     57 H25        -4.8390    2.1880   -0.4570 hn        1 MOL      0.315421
     58 H26        -7.4960    2.6940   -1.3040 h1        1 MOL      0.161694
     59 H27        -6.9890    2.0280    0.2780 h1        1 MOL      0.161694
     60 N6         -6.6400   -0.1190   -1.9770 n         1 MOL     -0.219402
     61 C19        -7.0000   -1.4180   -2.5120 c3        1 MOL     -0.034233
     62 C20        -7.0290   -2.4750   -1.2730 c         1 MOL      0.383152
     63 O10        -7.2190   -3.6520   -1.5900 o         1 MOL     -0.505708
     64 C21        -5.9510   -1.7930   -3.4890 c3        1 MOL     -0.146361
     65 C22        -4.5110   -1.5540   -2.9180 c         1 MOL      0.605179
     66 O11        -3.7990   -0.7200   -3.5490 o         1 MOL     -0.643081
     67 O12        -4.1000   -2.0540   -1.8170 o         1 MOL     -0.643081
     68 H28        -5.6660    0.1500   -1.9650 hn        1 MOL      0.235588
     69 H29        -7.9230   -1.3350   -3.0780 h1        1 MOL      0.113593
     70 H30        -6.0380   -1.2050   -4.4050 hc        1 MOL      0.052279
     71 H31        -5.9700   -2.8780   -3.6190 hc        1 MOL      0.052279
     72 N7         -6.7460   -2.0760    0.0040 n         1 MOL     -0.181678
     73 C23        -6.7430   -2.8410    1.2110 c3        1 MOL     -0.057611
     74 C24        -5.4970   -3.7360    1.4910 c         1 MOL      0.529677
     75 O13        -5.6840   -4.7490    2.0770 o         1 MOL     -0.564603
     76 H32        -6.3990   -1.1300    0.0950 hn        1 MOL      0.278189
     77 H33        -7.6430   -3.4530    1.3120 h1        1 MOL      0.066381
     78 H34        -6.8000   -2.1700    2.0710 h1        1 MOL      0.066381
     79 N8         -4.3250   -3.5020    0.8670 n         1 MOL      0.020725
     80 C25        -3.0380   -4.2310    0.9560 c3        1 MOL     -0.395697
     81 C26        -1.7530   -3.3480    0.9490 c         1 MOL      0.955191
     82 O14        -1.7200   -2.2600    0.4040 o         1 MOL     -0.633169
     83 C27        -2.8720   -5.2030   -0.2050 c3        1 MOL      0.506743
     84 C28        -3.7190   -6.4270   -0.0280 c3        1 MOL     -0.613987
     85 O15        -3.1580   -4.6830   -1.4430 oh        1 MOL     -0.596124
     86 H35        -4.4480   -2.6410    0.3390 hn        1 MOL     -0.201615
     87 H36        -2.9170   -4.8020    1.8760 h1        1 MOL      0.117800
     88 H37        -1.8160   -5.4670   -0.2850 h1        1 MOL      0.001806
     89 H38        -3.7240   -3.9220   -1.2750 ho        1 MOL      0.436881
     90 H39        -3.7060   -6.7910    0.9950 hc        1 MOL      0.154291
     91 H40        -4.7390   -6.1060   -0.2570 hc        1 MOL      0.154291
     92 H41        -3.4650   -7.1500   -0.8020 hc        1 MOL      0.154291
     93 N9         -0.7160   -3.8700    1.5440 n         1 MOL     -0.890834
     94 C29         0.6180   -3.1780    1.7560 c3        1 MOL      0.274516
     95 C30         1.6520   -3.7290    0.7770 c         1 MOL      0.678396
     96 O16         1.7620   -4.9490    0.7350 o         1 MOL     -0.592911
     97 C31         0.9130   -3.0300    3.2490 c3        1 MOL      0.120899
     98 C32         0.0290   -1.9520    3.8440 c3        1 MOL      0.171014
     99 C33         2.3760   -2.7910    3.7230 c3        1 MOL     -0.686562
    100 C34        -0.2080   -2.1820    5.3580 c3        1 MOL     -0.295035
    101 H42        -0.8720   -4.6830    2.1230 hn        1 MOL      0.353017
    102 H43         0.4430   -2.1690    1.3950 h1        1 MOL      0.046434
    103 H44         0.5980   -3.9960    3.6520 hc        1 MOL      0.018946
    104 H45        -0.9490   -1.9160    3.3660 hc        1 MOL     -0.008079
    105 H46         0.4800   -0.9710    3.6800 hc        1 MOL     -0.008079
    106 H47         2.4560   -2.7020    4.8090 hc        1 MOL      0.181677
    107 H48         2.8580   -3.5620    3.1340 hc        1 MOL      0.181677
    108 H49         2.7330   -1.8190    3.3910 hc        1 MOL      0.181677
    109 H50        -1.0980   -1.7040    5.7440 hc        1 MOL      0.063701
    110 H51        -0.2450   -3.2520    5.5680 hc        1 MOL      0.063701
    111 H52         0.6880   -1.9040    5.9220 hc        1 MOL      0.063701
    112 N10         2.4170   -2.8280    0.1570 n         1 MOL      0.020522
    113 C35         3.4530   -3.0690   -0.8170 c3        1 MOL     -0.155708
    114 C36         4.7540   -2.7020   -0.1570 c         1 MOL      0.406908
    115 O17         4.7950   -2.3040    1.0150 o         1 MOL     -0.373489
    116 C37         3.3160   -2.3110   -2.1850 c3        1 MOL      0.411850
    117 C38         2.1180   -2.8090   -2.9660 c3        1 MOL     -0.543858
    118 O18         2.9700   -0.9460   -2.0220 oh        1 MOL     -0.627935
    119 H53         2.3200   -1.8500    0.3960 hn        1 MOL     -0.573161
    120 H54         3.4890   -4.1130   -1.1120 h1        1 MOL      0.093988
    121 H55         4.1720   -2.4520   -2.8430 h1        1 MOL      0.026898
    122 H56         2.0760   -0.8670   -1.6890 ho        1 MOL      0.441683
    123 H57         2.0840   -3.8900   -2.8010 hc        1 MOL      0.153013
    124 H58         1.1460   -2.6240   -2.5120 hc        1 MOL      0.153013
    125 H59         2.1060   -2.5250   -4.0080 hc        1 MOL      0.153013
    126 N11         5.9110   -2.8970   -0.7690 n         1 MOL     -0.296540
    127 C39         7.1890   -2.5320   -0.2600 c3        1 MOL     -0.044460
    128 C40         7.4040   -1.0880    0.0770 c         1 MOL      0.229225
    129 O19         8.1220   -0.7650    1.0240 o         1 MOL     -0.459210
    130 C41         8.3370   -2.9070   -1.2370 c3        1 MOL      0.174361
    131 C42         8.7220   -4.3590   -1.2050 c3        1 MOL     -0.277378
    132 O20         8.0030   -2.6260   -2.5670 oh        1 MOL     -0.632815
    133 H60         5.9160   -3.2700   -1.7020 hn        1 MOL      0.257579
    134 H61         7.2280   -3.1990    0.5990 h1        1 MOL      0.146115
    135 H62         9.2620   -2.3490   -1.0940 h1        1 MOL      0.083859
    136 H63         8.7260   -2.9900   -3.0820 ho        1 MOL      0.417808
    137 H64         9.5690   -4.5090   -1.8880 hc        1 MOL      0.084190
    138 H65         9.1210   -4.6900   -0.2430 hc        1 MOL      0.084190
    139 H66         7.9210   -4.9930   -1.5860 hc        1 MOL      0.084190
    140 N12         6.7960   -0.1170   -0.6850 n         1 MOL     -0.138423
    141 C43         6.8210    1.2780   -0.3670 c3        1 MOL      0.095228
    142 C44         5.9110    1.7370    0.7730 c         1 MOL      0.262399
    143 O21         6.0760    2.7460    1.4210 o         1 MOL     -0.488762
    144 C45         6.6270    1.9310   -1.7140 c3        1 MOL     -0.251177
    145 C46         7.8110    1.8430   -2.6900 c3        1 MOL      0.087020
    146 C47         7.5870    2.6040   -3.9770 c3        1 MOL     -0.137339
    147 C48         8.6930    2.2530   -4.9690 c3        1 MOL     -0.000555
    148 N13        10.0130    2.8220   -4.5450 n4        1 MOL     -0.376207
    149 H67         6.4560   -0.4330   -1.5920 hn        1 MOL      0.215782
    150 H68         7.8400    1.5950   -0.1400 h1        1 MOL      0.062108
    151 H69         6.4800    2.9810   -1.4970 hc        1 MOL      0.091171
    152 H70         5.7210    1.5690   -2.1940 hc        1 MOL      0.091171
    153 H71         7.9330    0.7780   -2.9150 hc        1 MOL     -0.005739
    154 H72         8.7840    2.0060   -2.2270 hc        1 MOL     -0.005739
    155 H73         7.4960    3.6680   -3.7560 hc        1 MOL      0.093542
    156 H74         6.6790    2.1730   -4.4060 hc        1 MOL      0.093542
    157 H75         8.3260    2.6730   -5.9130 hx        1 MOL      0.100880
    158 H76         8.6850    1.1610   -4.9720 hx        1 MOL      0.100880
    159 H77         9.8750    3.7910   -4.3020 hn        1 MOL      0.320718
    160 H78        10.3670    2.2800   -3.7610 hn        1 MOL      0.320718
    161 H79        10.7180    2.5730   -5.2230 hn        1 MOL      0.320718
    162 N14         4.8220    1.0050    0.8890 n         1 MOL      0.008385
    163 C49         3.8200    1.1570    1.9460 c3        1 MOL     -0.235977
    164 C50         4.4020    0.5540    3.2660 c         1 MOL      0.484299
    165 O22         4.0640    1.0100    4.3090 o         1 MOL     -0.524298
    166 C51         2.4310    0.6990    1.4910 c3        1 MOL      0.085664
    167 C52         1.8060    1.5390    0.4070 c3        1 MOL      0.005035
    168 C53         0.5670    0.7250    0.0330 c         1 MOL      0.726789
    169 O23         0.6700   -0.3700   -0.4710 o         1 MOL     -0.649453
    170 O24        -0.5990    1.1710    0.1540 o         1 MOL     -0.649453
    171 H80         4.6410    0.3800    0.1220 hn        1 MOL      0.113183
    172 H81         3.6920    2.2180    2.1350 h1        1 MOL      0.100938
    173 H82         1.8200    0.7530    2.3900 hc        1 MOL      0.136620
    174 H83         2.6530   -0.2980    1.1050 hc        1 MOL      0.136620
    175 H84         2.4960    1.6260   -0.4300 hc        1 MOL     -0.029380
    176 H85         1.5550    2.5150    0.8210 hc        1 MOL     -0.029380
    177 N15         5.2840   -0.4800    3.1300 n         1 MOL     -0.159775
    178 C54         5.8720   -1.2110    4.2300 c3        1 MOL     -0.142836
    179 H86         5.2590   -1.0790    5.1210 h1        1 MOL      0.070282
    180 H87         5.9220   -2.2700    3.9770 h1        1 MOL      0.070282
    181 H88         6.8760   -0.8350    4.4210 h1        1 MOL      0.070282
    182 H89         5.4350   -0.7170    2.1610 hn        1 MOL      0.185777
    183 Ca1        -1.7980   -0.5240   -1.5210 Ca        1 MOL      1.737279
    184 O25        -1.2800   -2.8820   -2.7110 oh        1 MOL     -0.948119
    185 H90        -1.2470   -2.7580   -3.6630 ho        1 MOL      0.423680
    186 H91        -1.7020   -3.7290   -2.6000 ho        1 MOL      0.423680
    187 O26        -0.0340    0.4300   -3.4340 oh        1 MOL     -0.948119
    188 H92        -0.6040    1.1230   -3.7700 ho        1 MOL      0.423680
    189 H93         0.5560    0.2390   -4.1610 ho        1 MOL      0.423680
@<TRIPOS>BOND
     1    1    2 1   
     2    1    4 1   
     3    1    5 1   
     4    1    6 1   
     5    2    3 2   
     6    2    7 1   
     7    7    8 1   
     8    7   15 1   
     9    8    9 1   
    10    8   11 1   
    11    8   16 1   
    12    9   10 2   
    13    9   19 1   
    14   11   12 1   
    15   11   17 1   
    16   11   18 1   
    17   12   13 1   
    18   12   14 1   
    19   19   20 1   
    20   19   28 1   
    21   20   21 1   
    22   20   23 1   
    23   20   29 1   
    24   21   22 2   
    25   21   41 1   
    26   23   24 1   
    27   23   30 1   
    28   23   31 1   
    29   24   25 1   
    30   24   32 1   
    31   24   33 1   
    32   25   26 1   
    33   25   34 1   
    34   25   35 1   
    35   26   27 1   
    36   26   36 1   
    37   26   37 1   
    38   27   38 1   
    39   27   39 1   
    40   27   40 1   
    41   41   42 1   
    42   41   49 1   
    43   42   43 1   
    44   42   45 1   
    45   42   50 1   
    46   43   44 2   
    47   43   53 1   
    48   45   46 1   
    49   45   51 1   
    50   45   52 1   
    51   46   47 1   
    52   46   48 1   
    53   53   54 1   
    54   53   57 1   
    55   54   55 1   
    56   54   58 1   
    57   54   59 1   
    58   55   56 2   
    59   55   60 1   
    60   60   61 1   
    61   60   68 1   
    62   61   62 1   
    63   61   64 1   
    64   61   69 1   
    65   62   63 2   
    66   62   72 1   
    67   64   65 1   
    68   64   70 1   
    69   64   71 1   
    70   65   66 1   
    71   65   67 1   
    72   72   73 1   
    73   72   76 1   
    74   73   74 1   
    75   73   77 1   
    76   73   78 1   
    77   74   75 2   
    78   74   79 1   
    79   79   80 1   
    80   79   86 1   
    81   80   81 1   
    82   80   83 1   
    83   80   87 1   
    84   81   82 2   
    85   81   93 1   
    86   83   84 1   
    87   83   85 1   
    88   83   88 1   
    89   84   90 1   
    90   84   91 1   
    91   84   92 1   
    92   85   89 1   
    93   93   94 1   
    94   93  101 1   
    95   94   95 1   
    96   94   97 1   
    97   94  102 1   
    98   95   96 2   
    99   95  112 1   
   100   97   98 1   
   101   97   99 1   
   102   97  103 1   
   103   98  100 1   
   104   98  104 1   
   105   98  105 1   
   106   99  106 1   
   107   99  107 1   
   108   99  108 1   
   109  100  109 1   
   110  100  110 1   
   111  100  111 1   
   112  112  113 1   
   113  112  119 1   
   114  113  114 1   
   115  113  116 1   
   116  113  120 1   
   117  114  115 2   
   118  114  126 1   
   119  116  117 1   
   120  116  118 1   
   121  116  121 1   
   122  117  123 1   
   123  117  124 1   
   124  117  125 1   
   125  118  122 1   
   126  126  127 1   
   127  126  133 1   
   128  127  128 1   
   129  127  130 1   
   130  127  134 1   
   131  128  129 2   
   132  128  140 1   
   133  130  131 1   
   134  130  132 1   
   135  130  135 1   
   136  131  137 1   
   137  131  138 1   
   138  131  139 1   
   139  132  136 1   
   140  140  141 1   
   141  140  149 1   
   142  141  142 1   
   143  141  144 1   
   144  141  150 1   
   145  142  143 2   
   146  142  162 1   
   147  144  145 1   
   148  144  151 1   
   149  144  152 1   
   150  145  146 1   
   151  145  153 1   
   152  145  154 1   
   153  146  147 1   
   154  146  155 1   
   155  146  156 1   
   156  147  148 1   
   157  147  157 1   
   158  147  158 1   
   159  148  159 1   
   160  148  160 1   
   161  148  161 1   
   162  162  163 1   
   163  162  171 1   
   164  163  164 1   
   165  163  166 1   
   166  163  172 1   
   167  164  165 2   
   168  164  177 1   
   169  166  167 1   
   170  166  173 1   
   171  166  174 1   
   172  167  168 1   
   173  167  175 1   
   174  167  176 1   
   175  168  169 1   
   176  168  170 1   
   177  177  178 1   
   178  177  182 1   
   179  178  179 1   
   180  178  180 1   
   181  178  181 1   
   182  184  185 1   
   183  184  186 1   
   184  187  188 1   
   185  187  189 1   
@<TRIPOS>SUBSTRUCTURE
     1 MOL         1 TEMP              0 ****  ****    0 ROOT
