@<TRIPOS>MOLECULE
MOL
  172   171     1     0     0
SMALL
resp


@<TRIPOS>ATOM
      1 C1         -0.0850   -3.6120    5.6990 c3        1 MOL     -0.373233
      2 C2          0.3900   -3.2570    4.3210 c         1 MOL      0.747308
      3 O1         -0.3660   -3.5950    3.3950 o         1 MOL     -0.574125
      4 H1         -0.6930   -2.7980    6.0940 hc        1 MOL      0.091804
      5 H2         -0.6830   -4.5220    5.6540 hc        1 MOL      0.091804
      6 H3          0.7740   -3.7730    6.3500 hc        1 MOL      0.091804
      7 N1          1.5240   -2.5030    4.0950 n         1 MOL     -0.714945
      8 C3          2.0320   -2.1860    2.6910 c3        1 MOL      0.318939
      9 C4          2.6430   -3.4260    2.0820 c         1 MOL      0.462733
     10 O2          3.6320   -3.9900    2.5900 o         1 MOL     -0.589748
     11 C5          2.9580   -1.0300    2.7140 c3        1 MOL     -0.311879
     12 C6          3.7600   -0.8080    1.4500 c         1 MOL      0.681148
     13 O3          4.9130   -0.4310    1.5340 o         1 MOL     -0.599643
     14 O4          3.1940   -1.0260    0.3370 o         1 MOL     -0.599643
     15 H4          2.2080   -2.3390    4.8180 hn        1 MOL      0.336619
     16 H5          1.2090   -1.9010    2.0350 h1        1 MOL      0.033290
     17 H6          3.6360   -1.1840    3.5390 hc        1 MOL      0.056769
     18 H7          2.4040   -0.1030    2.8810 hc        1 MOL      0.056769
     19 N2          2.0580   -3.8060    0.9230 n         1 MOL     -0.350050
     20 C7          2.2740   -5.0660    0.1580 c3        1 MOL      0.040655
     21 C8          3.2680   -4.9740   -0.9580 c         1 MOL      0.549299
     22 O5          3.7790   -5.9980   -1.2930 o         1 MOL     -0.572893
     23 C9          0.8790   -5.5220   -0.2770 c3        1 MOL     -0.241074
     24 H8          1.3000   -3.2620    0.5360 hn        1 MOL      0.318160
     25 H9          2.6500   -5.7590    0.8990 h1        1 MOL      0.060197
     26 H10         0.9640   -6.4820   -0.7880 hc        1 MOL      0.064611
     27 H11         0.1130   -5.5130    0.4960 hc        1 MOL      0.064611
     28 H12         0.5530   -4.8340   -1.0640 hc        1 MOL      0.064611
     29 N3          3.6970   -3.7500   -1.2660 n         1 MOL     -0.124308
     30 C10         4.8130   -3.4850   -2.1930 c3        1 MOL     -0.256576
     31 C11         6.2000   -3.3440   -1.5270 c         1 MOL      0.531045
     32 O6          7.2330   -3.6770   -2.1170 o         1 MOL     -0.532779
     33 C12         4.5890   -2.2580   -3.0560 c3        1 MOL      0.037207
     34 C13         3.1910   -2.0910   -3.6360 c         1 MOL      0.596976
     35 O7          2.6940   -2.9580   -4.3840 o         1 MOL     -0.674581
     36 O8          2.5220   -1.0640   -3.3930 o         1 MOL     -0.674581
     37 H13         3.3130   -2.9200   -0.8550 hn        1 MOL      0.089535
     38 H14         4.8550   -4.3250   -2.8910 h1        1 MOL      0.116964
     39 H15         5.2540   -2.3420   -3.9140 hc        1 MOL      0.008287
     40 H16         4.9430   -1.3970   -2.4680 hc        1 MOL      0.008287
     41 N4          6.1780   -2.8340   -0.2750 n         1 MOL     -0.352089
     42 C14         7.3590   -2.2370    0.4210 c3        1 MOL     -0.032753
     43 C15         7.7840   -0.8510   -0.1290 c         1 MOL      0.412768
     44 O9          8.9590   -0.6330   -0.2460 o         1 MOL     -0.560136
     45 H17         5.2720   -2.6600    0.1310 hn        1 MOL      0.223652
     46 H18         8.2050   -2.9070    0.4140 h1        1 MOL      0.068201
     47 H19         6.9380   -2.0620    1.4150 h1        1 MOL      0.068201
     48 N5          6.8150   -0.0440   -0.6100 n         1 MOL     -0.010330
     49 C16         7.1030    1.2530   -1.1600 c3        1 MOL     -0.109857
     50 C17         6.8800    2.4430   -0.1440 c         1 MOL      0.367855
     51 O10         7.1410    3.5880   -0.4650 o         1 MOL     -0.524003
     52 C18         6.3050    1.4890   -2.4880 c3        1 MOL     -0.163546
     53 C19         4.9410    2.0910   -2.2290 c         1 MOL      0.606387
     54 N6          4.7400    3.3070   -2.6320 n         1 MOL     -0.642757
     55 O11         4.0710    1.4930   -1.5650 o         1 MOL     -0.654688
     56 H20         5.8990   -0.3010   -0.2420 hn        1 MOL      0.130899
     57 H21         8.1360    1.3040   -1.5070 h1        1 MOL      0.121225
     58 H22         6.2780    0.5430   -3.0410 hc        1 MOL      0.056136
     59 H23         6.7780    2.2650   -3.1020 hc        1 MOL      0.056136
     60 H24         5.4670    3.8330   -3.0960 hn        1 MOL      0.325962
     61 H25         3.8990    3.7760   -2.3150 hn        1 MOL      0.325962
     62 N7          6.3200    2.0980    1.0190 n         1 MOL     -0.101159
     63 C20         6.0330    2.9870    2.0930 c3        1 MOL     -0.294082
     64 C21         4.7610    3.7700    2.0690 c         1 MOL      0.635603
     65 O12         4.5360    4.5250    2.9640 o         1 MOL     -0.602034
     66 H26         6.0430    1.1490    1.2300 hn        1 MOL      0.158904
     67 H27         6.7270    3.8230    2.1340 h1        1 MOL      0.127646
     68 H28         5.9740    2.4040    3.0260 h1        1 MOL      0.127646
     69 N8          3.9900    3.8570    0.9690 n         1 MOL     -0.236344
     70 C22         2.6990    4.5130    0.8640 c3        1 MOL     -0.148244
     71 C23         1.6230    3.4410    0.7770 c         1 MOL      0.713280
     72 O13         1.7640    2.3880    0.0930 o         1 MOL     -0.655945
     73 C24         2.4650    5.5160   -0.2710 c3        1 MOL      0.460828
     74 C25         3.3610    6.8110   -0.0360 c3        1 MOL     -0.540106
     75 O14         2.6560    4.9610   -1.5510 oh        1 MOL     -0.604651
     76 H29         4.3080    3.3060    0.1860 hn        1 MOL      0.195128
     77 H30         2.4840    5.0450    1.7840 h1        1 MOL      0.079034
     78 H31         1.4270    5.8760   -0.2420 h1        1 MOL     -0.016033
     79 H32         2.6050    5.7750   -2.0640 ho        1 MOL      0.390779
     80 H33         4.2010    6.7730   -0.7370 hc        1 MOL      0.133784
     81 H34         2.6910    7.6280   -0.3310 hc        1 MOL      0.133784
     82 H35         3.8190    7.0040    0.9310 hc        1 MOL      0.133784
     83 N9          0.5040    3.7640    1.4330 n         1 MOL     -0.557496
     84 C26        -0.6800    2.8890    1.5340 c3        1 MOL      0.050487
     85 C27        -1.7310    3.0560    0.3640 c         1 MOL      0.645890
     86 O15        -2.3380    4.0920    0.3510 o         1 MOL     -0.594889
     87 C28        -1.3330    3.0530    2.9570 c3        1 MOL      0.087213
     88 C29        -0.4020    2.3910    4.0200 c3        1 MOL      0.220929
     89 C30        -2.6360    2.2450    3.0810 c3        1 MOL     -0.219395
     90 C31        -0.7830    2.7890    5.4590 c3        1 MOL     -0.363867
     91 H36         0.5460    4.5330    2.0840 hn        1 MOL      0.279445
     92 H37        -0.3440    1.8620    1.4230 h1        1 MOL      0.017372
     93 H38        -1.5080    4.1170    3.1450 hc        1 MOL      0.005197
     94 H39         0.5780    2.8290    3.8420 hc        1 MOL     -0.017184
     95 H40        -0.1730    1.3350    3.9590 hc        1 MOL     -0.017184
     96 H41        -2.3780    1.1910    2.9340 hc        1 MOL      0.040373
     97 H42        -3.0490    2.2550    4.0840 hc        1 MOL      0.040373
     98 H43        -3.3200    2.6210    2.3190 hc        1 MOL      0.040373
     99 H44        -1.8620    2.7280    5.5970 hc        1 MOL      0.073411
    100 H45        -0.2310    2.0880    6.0840 hc        1 MOL      0.073411
    101 H46        -0.5050    3.8140    5.6910 hc        1 MOL      0.073411
    102 N10        -1.9820    1.9990   -0.4020 n         1 MOL     -0.515290
    103 C32        -3.0670    1.9970   -1.4710 c3        1 MOL     -0.080314
    104 C33        -4.4460    1.6520   -0.8610 c         1 MOL      0.733978
    105 O16        -4.4650    1.0660    0.2160 o         1 MOL     -0.440408
    106 C34        -2.6740    1.1160   -2.7000 c3        1 MOL     -0.242877
    107 C35        -1.3160    1.3190   -3.1430 c         1 MOL      0.811852
    108 O17        -1.0190    2.0400   -4.1290 o         1 MOL     -0.712377
    109 O18        -0.4240    0.5430   -2.7270 o         1 MOL     -0.712377
    110 H47        -1.4560    1.1690   -0.1920 hn        1 MOL      0.308546
    111 H48        -3.1400    3.0180   -1.8620 h1        1 MOL      0.087021
    112 H49        -3.3990    1.2620   -3.5090 hc        1 MOL      0.076324
    113 H50        -2.7170    0.0880   -2.3510 hc        1 MOL      0.076324
    114 N11        -5.5450    1.7900   -1.5740 n         1 MOL     -0.861140
    115 C36        -6.8590    1.2220   -1.2290 c3        1 MOL      0.560207
    116 C37        -6.8400   -0.2700   -0.8040 c         1 MOL      0.152667
    117 O19        -7.2880   -0.5330    0.3070 o         1 MOL     -0.486496
    118 C38        -8.0190    1.5790   -2.1360 c3        1 MOL     -0.351027
    119 C39        -9.3530    1.3310   -1.5280 ca        1 MOL      0.134839
    120 C40        -9.7400    1.9590   -0.3600 ca        1 MOL     -0.109682
    121 C41       -10.2860    0.5180   -2.1540 ca        1 MOL     -0.109682
    122 C42       -11.0340    1.8330    0.1750 ca        1 MOL     -0.204305
    123 C43       -11.5880    0.4830   -1.6840 ca        1 MOL     -0.204305
    124 C44       -11.9040    1.0270   -0.4490 ca        1 MOL      0.021055
    125 H51        -5.5830    2.2590   -2.4680 hn        1 MOL      0.372494
    126 H52        -7.1270    1.6730   -0.2680 h1        1 MOL      0.043404
    127 H53        -7.9070    1.1240   -3.1230 hc        1 MOL      0.085496
    128 H54        -8.0350    2.6450   -2.3170 hc        1 MOL      0.085496
    129 H55        -9.1000    2.6440    0.1790 ha        1 MOL      0.102466
    130 H56       -10.0470    0.0900   -3.1180 ha        1 MOL      0.102466
    131 H57       -11.3040    2.3380    1.0880 ha        1 MOL      0.126815
    132 H58       -12.2850   -0.1600   -2.1950 ha        1 MOL      0.126815
    133 H59       -12.9560    1.0600   -0.1910 ha        1 MOL      0.057425
    134 N12        -6.3240   -1.3050   -1.5320 n         1 MOL      0.012332
    135 C45        -6.2870   -2.6940   -1.0340 c3        1 MOL      0.059936
    136 C46        -5.4130   -2.9040    0.2120 c         1 MOL      0.272336
    137 O20        -5.4830   -4.0000    0.7390 o         1 MOL     -0.534471
    138 C47        -5.8440   -3.5190   -2.2060 c3        1 MOL     -0.025382
    139 C48        -6.2320   -2.6460   -3.4720 c3        1 MOL     -0.109669
    140 C49        -5.9630   -1.2220   -2.9590 c3        1 MOL     -0.064488
    141 H60        -7.3160   -2.9810   -0.8240 h1        1 MOL      0.066728
    142 H61        -4.7910   -3.7980   -2.1610 hc        1 MOL      0.042215
    143 H62        -6.4280   -4.4310   -2.1990 hc        1 MOL      0.042215
    144 H63        -5.5670   -2.9010   -4.2930 hc        1 MOL      0.043897
    145 H64        -7.3080   -2.7750   -3.6370 hc        1 MOL      0.043897
    146 H65        -4.8990   -0.9900   -2.9580 h1        1 MOL      0.057153
    147 H66        -6.6070   -0.5150   -3.4800 h1        1 MOL      0.057153
    148 N13        -4.7030   -1.9300    0.6220 n         1 MOL      0.050784
    149 C50        -3.8180   -2.0640    1.7580 c3        1 MOL     -0.074119
    150 C51        -4.4260   -1.4170    3.0030 c         1 MOL      0.432081
    151 O21        -4.3990   -1.9280    4.1330 o         1 MOL     -0.553475
    152 C52        -2.4670   -1.4090    1.4830 c3        1 MOL     -0.033648
    153 C53        -1.6900   -2.1510    0.3860 c3        1 MOL      0.065266
    154 C54        -0.3730   -1.3610    0.0430 c         1 MOL      0.422191
    155 O22        -0.1660   -0.1200    0.2400 o         1 MOL     -0.640776
    156 O23         0.5320   -2.0600   -0.4640 o         1 MOL     -0.640776
    157 H67        -4.6860   -1.1270    0.0170 hn        1 MOL      0.031548
    158 H68        -3.5750   -3.1220    1.8840 h1        1 MOL      0.087584
    159 H69        -1.8500   -1.3880    2.3770 hc        1 MOL      0.067172
    160 H70        -2.6330   -0.3990    1.1120 hc        1 MOL      0.067172
    161 H71        -2.2710   -2.3840   -0.5060 hc        1 MOL      0.024849
    162 H72        -1.4000   -3.1250    0.7790 hc        1 MOL      0.024849
    163 N14        -5.0350   -0.2260    2.8140 n         1 MOL     -0.004636
    164 C55        -5.9700    0.3190    3.8170 c3        1 MOL     -0.302702
    165 H73        -5.4420    0.4760    4.7570 h1        1 MOL      0.102132
    166 H74        -6.3700    1.2700    3.4640 h1        1 MOL      0.102132
    167 H75        -6.7870   -0.3850    3.9730 h1        1 MOL      0.102132
    168 H76        -5.1410    0.0540    1.8480 hn        1 MOL      0.062270
    169 Ca1         1.6860    0.3170   -1.4130 Ca        1 MOL      1.670848
    170 O24         1.7840    2.1570   -3.3600 oh        1 MOL     -0.853466
    171 H77         2.1450    2.9260   -3.8010 ho        1 MOL      0.389628
    172 H78         0.8520    2.1690   -3.5920 ho        1 MOL      0.389628
@<TRIPOS>BOND
     1    1    2 1   
     2    1    4 1   
     3    1    5 1   
     4    1    6 1   
     5    2    3 2   
     6    2    7 1   
     7    7    8 1   
     8    7   15 1   
     9    8    9 1   
    10    8   11 1   
    11    8   16 1   
    12    9   10 2   
    13    9   19 1   
    14   11   12 1   
    15   11   17 1   
    16   11   18 1   
    17   12   13 1   
    18   12   14 1   
    19   19   20 1   
    20   19   24 1   
    21   20   21 1   
    22   20   23 1   
    23   20   25 1   
    24   21   22 2   
    25   21   29 1   
    26   23   26 1   
    27   23   27 1   
    28   23   28 1   
    29   29   30 1   
    30   29   37 1   
    31   30   31 1   
    32   30   33 1   
    33   30   38 1   
    34   31   32 2   
    35   31   41 1   
    36   33   34 1   
    37   33   39 1   
    38   33   40 1   
    39   34   35 1   
    40   34   36 1   
    41   41   42 1   
    42   41   45 1   
    43   42   43 1   
    44   42   46 1   
    45   42   47 1   
    46   43   44 2   
    47   43   48 1   
    48   48   49 1   
    49   48   56 1   
    50   49   50 1   
    51   49   52 1   
    52   49   57 1   
    53   50   51 2   
    54   50   62 1   
    55   52   53 1   
    56   52   58 1   
    57   52   59 1   
    58   53   54 1   
    59   53   55 2   
    60   54   60 1   
    61   54   61 1   
    62   62   63 1   
    63   62   66 1   
    64   63   64 1   
    65   63   67 1   
    66   63   68 1   
    67   64   65 2   
    68   64   69 1   
    69   69   70 1   
    70   69   76 1   
    71   70   71 1   
    72   70   73 1   
    73   70   77 1   
    74   71   72 2   
    75   71   83 1   
    76   73   74 1   
    77   73   75 1   
    78   73   78 1   
    79   74   80 1   
    80   74   81 1   
    81   74   82 1   
    82   75   79 1   
    83   83   84 1   
    84   83   91 1   
    85   84   85 1   
    86   84   87 1   
    87   84   92 1   
    88   85   86 2   
    89   85  102 1   
    90   87   88 1   
    91   87   89 1   
    92   87   93 1   
    93   88   90 1   
    94   88   94 1   
    95   88   95 1   
    96   89   96 1   
    97   89   97 1   
    98   89   98 1   
    99   90   99 1   
   100   90  100 1   
   101   90  101 1   
   102  102  103 1   
   103  102  110 1   
   104  103  104 1   
   105  103  106 1   
   106  103  111 1   
   107  104  105 2   
   108  104  114 1   
   109  106  107 1   
   110  106  112 1   
   111  106  113 1   
   112  107  108 1   
   113  107  109 1   
   114  114  115 1   
   115  114  125 1   
   116  115  116 1   
   117  115  118 1   
   118  115  126 1   
   119  116  117 2   
   120  116  134 1   
   121  118  119 1   
   122  118  127 1   
   123  118  128 1   
   124  119  120 ar  
   125  119  121 ar  
   126  120  122 ar  
   127  120  129 1   
   128  121  123 ar  
   129  121  130 1   
   130  122  124 ar  
   131  122  131 1   
   132  123  124 ar  
   133  123  132 1   
   134  124  133 1   
   135  134  135 1   
   136  134  140 1   
   137  135  136 1   
   138  135  138 1   
   139  135  141 1   
   140  136  137 2   
   141  136  148 1   
   142  138  139 1   
   143  138  142 1   
   144  138  143 1   
   145  139  140 1   
   146  139  144 1   
   147  139  145 1   
   148  140  146 1   
   149  140  147 1   
   150  148  149 1   
   151  148  157 1   
   152  149  150 1   
   153  149  152 1   
   154  149  158 1   
   155  150  151 2   
   156  150  163 1   
   157  152  153 1   
   158  152  159 1   
   159  152  160 1   
   160  153  154 1   
   161  153  161 1   
   162  153  162 1   
   163  154  155 1   
   164  154  156 1   
   165  163  164 1   
   166  163  168 1   
   167  164  165 1   
   168  164  166 1   
   169  164  167 1   
   170  170  171 1   
   171  170  172 1   
@<TRIPOS>SUBSTRUCTURE
     1 MOL         1 TEMP              0 ****  ****    0 ROOT
