@<TRIPOS>MOLECULE
MOL
  178   175     1     0     0
SMALL
resp


@<TRIPOS>ATOM
      1 C1         -0.3060    1.7110    5.7720 c3        1 MOL     -0.353555
      2 C2         -0.4530    1.7090    4.2350 c         1 MOL      0.756865
      3 O1          0.2600    2.4530    3.5650 o         1 MOL     -0.605558
      4 H1          0.5660    1.1210    6.0540 hc        1 MOL      0.082446
      5 H2         -0.1810    2.7350    6.1240 hc        1 MOL      0.082446
      6 H3         -1.1990    1.2770    6.2230 hc        1 MOL      0.082446
      7 N1         -1.4060    0.9470    3.7320 n         1 MOL     -0.455585
      8 C3         -1.8340    1.0010    2.3320 c3        1 MOL     -0.024561
      9 C4         -2.4100    2.4070    2.0440 c         1 MOL      0.381929
     10 O2         -3.4110    2.8200    2.5830 o         1 MOL     -0.509971
     11 C5         -2.8290   -0.1110    2.0080 c3        1 MOL     -0.052381
     12 C6         -3.2700   -0.0140    0.5500 c         1 MOL      0.166941
     13 O3         -2.7210    0.8120   -0.2480 o         1 MOL     -0.342334
     14 O4         -4.2150   -0.7700    0.1970 o         1 MOL     -0.342334
     15 H4         -1.9710    0.4210    4.3810 hn        1 MOL      0.274907
     16 H5         -0.9830    1.0160    1.6430 h1        1 MOL      0.054494
     17 H6         -3.7640    0.0130    2.5570 hc        1 MOL      0.055891
     18 H7         -2.4070   -1.0730    2.3310 hc        1 MOL      0.055891
     19 N2         -1.6290    3.1610    1.2200 n         1 MOL     -0.131915
     20 C7         -1.9740    4.5580    0.9170 c3        1 MOL      0.132550
     21 C8         -3.3810    4.7500    0.2580 c         1 MOL      0.378840
     22 O5         -4.0450    5.7620    0.4460 o         1 MOL     -0.583567
     23 C9         -0.8170    5.2720    0.1470 c3        1 MOL     -0.259719
     24 H8         -0.8240    2.7910    0.7470 hn        1 MOL      0.202522
     25 H9         -2.0180    5.0930    1.8620 h1        1 MOL      0.036573
     26 H10        -0.6360    4.9020   -0.8580 hc        1 MOL      0.069644
     27 H11        -1.0940    6.3010   -0.1110 hc        1 MOL      0.069644
     28 H12         0.0910    5.3060    0.7560 hc        1 MOL      0.069644
     29 N3         -3.7710    3.8080   -0.5570 n         1 MOL      0.043000
     30 C10        -5.0330    3.8810   -1.2170 c3        1 MOL     -0.010594
     31 C11        -6.0500    2.9210   -0.5120 c         1 MOL      0.414570
     32 O6         -7.2080    2.8820   -0.8150 o         1 MOL     -0.525145
     33 C12        -4.9390    3.5250   -2.7060 c3        1 MOL     -0.261778
     34 C13        -4.1820    2.1260   -3.0680 c         1 MOL      0.620098
     35 O7         -2.9030    2.0680   -2.8930 o         1 MOL     -0.643970
     36 O8         -4.9620    1.1350   -3.2440 o         1 MOL     -0.643970
     37 H13        -3.1200    3.0610   -0.7500 hn        1 MOL     -0.026733
     38 H14        -5.4320    4.8900   -1.0820 h1        1 MOL      0.114148
     39 H15        -4.4620    4.3280   -3.2690 hc        1 MOL      0.061018
     40 H16        -5.9540    3.4510   -3.0980 hc        1 MOL      0.061018
     41 N4         -5.7010    2.3980    0.6880 n         1 MOL     -0.035242
     42 C14        -6.5730    2.0340    1.7640 c3        1 MOL     -0.336517
     43 C15        -7.3320    0.7400    1.7010 c         1 MOL      0.539977
     44 O9         -7.9510    0.2940    2.6750 o         1 MOL     -0.600478
     45 H17        -4.7100    2.2760    0.8500 hn        1 MOL      0.018568
     46 H18        -7.3970    2.7270    1.9410 h1        1 MOL      0.147037
     47 H19        -6.0070    1.9610    2.6910 h1        1 MOL      0.147037
     48 N5         -7.2540    0.1120    0.5790 n         1 MOL     -0.161641
     49 C16        -7.9760   -1.1180    0.2960 c3        1 MOL     -0.040281
     50 C17        -7.5800   -2.2910    1.1690 c         1 MOL      0.456076
     51 O10        -8.3710   -3.1790    1.4850 o         1 MOL     -0.565422
     52 C18        -7.7380   -1.4140   -1.1690 c3        1 MOL     -0.207907
     53 C19        -8.4970   -0.5030   -2.1550 c         1 MOL      0.664843
     54 N6         -7.7670    0.2780   -2.8250 n         1 MOL     -0.683868
     55 O11        -9.6780   -0.5000   -2.4080 o         1 MOL     -0.621628
     56 H20        -6.5380    0.4940   -0.0240 hn        1 MOL      0.161004
     57 H21        -9.0440   -0.9330    0.3960 h1        1 MOL      0.087814
     58 H22        -7.9620   -2.4710   -1.3250 hc        1 MOL      0.047769
     59 H23        -6.6730   -1.2580   -1.3040 hc        1 MOL      0.047769
     60 H24        -6.7720    0.3490   -2.6550 hn        1 MOL      0.341780
     61 H25        -8.2250    0.9660   -3.4130 hn        1 MOL      0.341780
     62 N7         -6.2710   -2.3780    1.4070 n         1 MOL     -0.067374
     63 C20        -5.6620   -3.4050    2.2940 c3        1 MOL     -0.010680
     64 C21        -4.3950   -4.0760    1.6620 c         1 MOL      0.473653
     65 O12        -4.1730   -5.2380    2.0390 o         1 MOL     -0.542922
     66 H26        -5.6410   -1.7330    0.9510 hn        1 MOL     -0.000135
     67 H27        -6.4080   -4.0800    2.7070 h1        1 MOL      0.052149
     68 H28        -5.4200   -2.7660    3.1370 h1        1 MOL      0.052149
     69 N8         -3.6030   -3.3630    0.8460 n         1 MOL     -0.381806
     70 C22        -2.5170   -3.9750    0.0260 c3        1 MOL     -0.028011
     71 C23        -1.2940   -3.0520    0.0370 c         1 MOL      0.600916
     72 O13        -1.3160   -1.9700   -0.5580 o         1 MOL     -0.684987
     73 C24        -2.9260   -4.2340   -1.4460 c3        1 MOL      0.296912
     74 C25        -1.7690   -4.9620   -2.1520 c3        1 MOL     -0.406650
     75 O14        -4.0730   -5.0670   -1.3300 oh        1 MOL     -0.553679
     76 H29        -3.7160   -2.3710    0.6940 hn        1 MOL      0.244659
     77 H30        -2.2090   -4.9070    0.4960 h1        1 MOL      0.097823
     78 H31        -3.1490   -3.3640   -2.0560 h1        1 MOL      0.013357
     79 H32        -4.3730   -5.1580   -2.2380 ho        1 MOL      0.366233
     80 H33        -2.0400   -5.2140   -3.1740 hc        1 MOL      0.100113
     81 H34        -0.8900   -4.3110   -2.1160 hc        1 MOL      0.100113
     82 H35        -1.5770   -5.9730   -1.7960 hc        1 MOL      0.100113
     83 N9         -0.2370   -3.5190    0.6640 n         1 MOL     -0.428701
     84 C26         0.9210   -2.7270    0.9800 c3        1 MOL      0.015766
     85 C27         2.0720   -2.9930    0.0740 c         1 MOL      0.441481
     86 O15         2.6640   -4.0840    0.0880 o         1 MOL     -0.591178
     87 C28         1.3690   -2.9250    2.4710 c3        1 MOL      0.368955
     88 C29         0.0820   -2.9460    3.4460 c3        1 MOL      0.331896
     89 C30         2.4620   -1.9540    2.7900 c3        1 MOL     -0.286922
     90 C31         0.3640   -3.5120    4.8260 c3        1 MOL     -0.313569
     91 H36        -0.3680   -4.3930    1.1570 hn        1 MOL      0.241467
     92 H37         0.6510   -1.6850    0.8350 h1        1 MOL      0.094430
     93 H38         1.7600   -3.9260    2.6290 hc        1 MOL     -0.086335
     94 H39        -0.7220   -3.4970    2.9590 hc        1 MOL     -0.111401
     95 H40        -0.2180   -1.9160    3.6480 hc        1 MOL     -0.111401
     96 H41         2.0360   -0.9700    2.6140 hc        1 MOL      0.026169
     97 H42         2.7600   -2.1830    3.8140 hc        1 MOL      0.026169
     98 H43         3.3680   -2.0360    2.1840 hc        1 MOL      0.026169
     99 H44        -0.5100   -3.6120    5.4800 hc        1 MOL      0.057864
    100 H45         0.6950   -4.5400    4.7240 hc        1 MOL      0.057864
    101 H46         1.1670   -2.8830    5.1980 hc        1 MOL      0.057864
    102 N10         2.4290   -1.9550   -0.7110 n         1 MOL     -0.027468
    103 C32         3.6000   -1.8260   -1.5890 c3        1 MOL      0.039955
    104 C33         4.8570   -1.2620   -0.9880 c         1 MOL      0.442166
    105 O16         4.8610   -0.7770    0.1170 o         1 MOL     -0.381444
    106 C34         3.1220   -0.9640   -2.8130 c3        1 MOL     -0.116696
    107 C35         1.8970   -1.4720   -3.5900 c         1 MOL      0.608030
    108 O17         2.0520   -2.2300   -4.6250 o         1 MOL     -0.675865
    109 O18         0.7840   -1.0460   -3.2170 o         1 MOL     -0.675865
    110 H47         1.8690   -1.1260   -0.6410 hn        1 MOL      0.056768
    111 H48         3.7370   -2.8430   -1.9570 h1        1 MOL      0.055294
    112 H49         3.9490   -0.8690   -3.5160 hc        1 MOL      0.010559
    113 H50         2.9110    0.0170   -2.4090 hc        1 MOL      0.010559
    114 N11         6.0210   -1.4050   -1.6720 n         1 MOL     -0.796656
    115 C36         7.2400   -1.0990   -0.9580 c3        1 MOL      0.644910
    116 C37         7.3670    0.3680   -0.4820 c         1 MOL      0.098782
    117 O19         7.6640    0.5150    0.6880 o         1 MOL     -0.478682
    118 C38         8.4410   -1.6230   -1.7530 c3        1 MOL     -0.355462
    119 C39         9.7450   -1.6330   -0.9100 ca        1 MOL      0.231099
    120 C40         9.8710   -2.2840    0.3510 ca        1 MOL     -0.253780
    121 C41        10.8770   -1.0150   -1.4750 ca        1 MOL     -0.253780
    122 C42        11.1450   -2.4020    0.9910 ca        1 MOL     -0.013146
    123 C43        12.1150   -0.9980   -0.7740 ca        1 MOL     -0.013146
    124 C44        12.2230   -1.7390    0.4040 ca        1 MOL     -0.227262
    125 H51         5.9870   -2.0000   -2.4900 hn        1 MOL      0.374010
    126 H52         7.1530   -1.6370   -0.0170 h1        1 MOL      0.019853
    127 H53         8.5580   -0.9630   -2.6160 hc        1 MOL      0.084000
    128 H54         8.2080   -2.6320   -2.1040 hc        1 MOL      0.084000
    129 H55         9.0260   -2.7760    0.7960 ha        1 MOL      0.126712
    130 H56        10.6530   -0.4160   -2.3380 ha        1 MOL      0.126712
    131 H57        11.3110   -2.9030    1.9370 ha        1 MOL      0.093244
    132 H58        13.0010   -0.6660   -1.2980 ha        1 MOL      0.093244
    133 H59        13.1320   -1.8730    0.9790 ha        1 MOL      0.122765
    134 N12         7.0380    1.4110   -1.2240 n         1 MOL      0.081028
    135 C45         7.1780    2.7440   -0.7080 c3        1 MOL      0.005205
    136 C46         6.1970    3.0420    0.4490 c         1 MOL      0.405997
    137 O20         6.4290    4.0110    1.1450 o         1 MOL     -0.521520
    138 C47         7.0510    3.7550   -1.8420 c3        1 MOL     -0.224943
    139 C48         6.3690    2.9190   -2.8950 c3        1 MOL      0.174223
    140 C49         6.4590    1.4640   -2.6430 c3        1 MOL     -0.330764
    141 H60         8.1920    2.9120   -0.3480 h1        1 MOL      0.069683
    142 H61         6.4740    4.6710   -1.7020 hc        1 MOL      0.078842
    143 H62         8.0550    3.9480   -2.2260 hc        1 MOL      0.078842
    144 H63         5.2930    3.1460   -2.8890 hc        1 MOL     -0.011048
    145 H64         6.7470    3.2270   -3.8620 hc        1 MOL     -0.011048
    146 H65         5.4060    1.2140   -2.5210 h1        1 MOL      0.129853
    147 H66         7.1290    0.9890   -3.3690 h1        1 MOL      0.129853
    148 N13         5.1900    2.1800    0.6040 n         1 MOL     -0.161470
    149 C50         4.1750    2.2970    1.6590 c3        1 MOL     -0.251747
    150 C51         4.7860    1.6180    2.9410 c         1 MOL      0.504392
    151 O21         4.8060    2.1970    4.0140 o         1 MOL     -0.548675
    152 C52         2.8760    1.5930    1.2200 c3        1 MOL      0.303929
    153 C53         2.1040    2.3500    0.0550 c3        1 MOL     -0.081881
    154 C54         0.8600    1.6850   -0.5350 c         1 MOL      0.570085
    155 O22         0.8020    0.4230   -0.4890 o         1 MOL     -0.646415
    156 O23        -0.0190    2.3220   -1.1530 o         1 MOL     -0.646415
    157 H67         5.1930    1.4480   -0.0810 hn        1 MOL      0.222264
    158 H68         3.9610    3.3490    1.8410 h1        1 MOL      0.138851
    159 H69         2.3110    1.4900    2.1370 hc        1 MOL     -0.056907
    160 H70         3.0120    0.5680    0.8750 hc        1 MOL     -0.056907
    161 H71         2.8310    2.5200   -0.7330 hc        1 MOL     -0.000170
    162 H72         1.8070    3.3170    0.4550 hc        1 MOL     -0.000170
    163 N14         5.3940    0.4180    2.8390 n         1 MOL     -0.086675
    164 C55         6.1860   -0.1010    3.9250 c3        1 MOL     -0.161006
    165 H73         6.9840   -0.7270    3.5250 h1        1 MOL      0.065686
    166 H74         6.6210    0.7260    4.4860 h1        1 MOL      0.065686
    167 H75         5.5540   -0.6960    4.5840 h1        1 MOL      0.065686
    168 H76         5.5010    0.0330    1.9160 hn        1 MOL      0.132112
    169 Ca1        -1.2120    0.1900   -2.2440 Ca        1 MOL      1.727662
    170 O24        -2.1760   -1.1410   -4.3760 oh        1 MOL     -0.855283
    171 H77        -3.0090   -1.4390   -4.7290 ho        1 MOL      0.413244
    172 H78        -1.5190   -1.6750   -4.8100 ho        1 MOL      0.413244
    173 O25        -3.9590   -1.0150   -2.3420 oh        1 MOL     -0.855283
    174 H79        -4.1720   -1.0700   -1.4100 ho        1 MOL      0.413244
    175 H80        -4.3450   -0.1820   -2.6210 ho        1 MOL      0.413244
    176 O26         0.1370    1.5570   -4.2370 oh        1 MOL     -0.855283
    177 H81         0.7110    2.2980   -4.0560 ho        1 MOL      0.413244
    178 H82         0.6180    1.0320   -4.8860 ho        1 MOL      0.413244
@<TRIPOS>BOND
     1    1    2 1   
     2    1    4 1   
     3    1    5 1   
     4    1    6 1   
     5    2    3 2   
     6    2    7 1   
     7    7    8 1   
     8    7   15 1   
     9    8    9 1   
    10    8   11 1   
    11    8   16 1   
    12    9   10 2   
    13    9   19 1   
    14   11   12 1   
    15   11   17 1   
    16   11   18 1   
    17   12   13 1   
    18   12   14 1   
    19   19   20 1   
    20   19   24 1   
    21   20   21 1   
    22   20   23 1   
    23   20   25 1   
    24   21   22 2   
    25   21   29 1   
    26   23   26 1   
    27   23   27 1   
    28   23   28 1   
    29   29   30 1   
    30   29   37 1   
    31   30   31 1   
    32   30   33 1   
    33   30   38 1   
    34   31   32 2   
    35   31   41 1   
    36   33   34 1   
    37   33   39 1   
    38   33   40 1   
    39   34   35 1   
    40   34   36 1   
    41   41   42 1   
    42   41   45 1   
    43   42   43 1   
    44   42   46 1   
    45   42   47 1   
    46   43   44 2   
    47   43   48 1   
    48   48   49 1   
    49   48   56 1   
    50   49   50 1   
    51   49   52 1   
    52   49   57 1   
    53   50   51 2   
    54   50   62 1   
    55   52   53 1   
    56   52   58 1   
    57   52   59 1   
    58   53   54 1   
    59   53   55 2   
    60   54   60 1   
    61   54   61 1   
    62   62   63 1   
    63   62   66 1   
    64   63   64 1   
    65   63   67 1   
    66   63   68 1   
    67   64   65 2   
    68   64   69 1   
    69   69   70 1   
    70   69   76 1   
    71   70   71 1   
    72   70   73 1   
    73   70   77 1   
    74   71   72 2   
    75   71   83 1   
    76   73   74 1   
    77   73   75 1   
    78   73   78 1   
    79   74   80 1   
    80   74   81 1   
    81   74   82 1   
    82   75   79 1   
    83   83   84 1   
    84   83   91 1   
    85   84   85 1   
    86   84   87 1   
    87   84   92 1   
    88   85   86 2   
    89   85  102 1   
    90   87   88 1   
    91   87   89 1   
    92   87   93 1   
    93   88   90 1   
    94   88   94 1   
    95   88   95 1   
    96   89   96 1   
    97   89   97 1   
    98   89   98 1   
    99   90   99 1   
   100   90  100 1   
   101   90  101 1   
   102  102  103 1   
   103  102  110 1   
   104  103  104 1   
   105  103  106 1   
   106  103  111 1   
   107  104  105 2   
   108  104  114 1   
   109  106  107 1   
   110  106  112 1   
   111  106  113 1   
   112  107  108 1   
   113  107  109 1   
   114  114  115 1   
   115  114  125 1   
   116  115  116 1   
   117  115  118 1   
   118  115  126 1   
   119  116  117 2   
   120  116  134 1   
   121  118  119 1   
   122  118  127 1   
   123  118  128 1   
   124  119  120 ar  
   125  119  121 ar  
   126  120  122 ar  
   127  120  129 1   
   128  121  123 ar  
   129  121  130 1   
   130  122  124 ar  
   131  122  131 1   
   132  123  124 ar  
   133  123  132 1   
   134  124  133 1   
   135  134  135 1   
   136  134  140 1   
   137  135  136 1   
   138  135  138 1   
   139  135  141 1   
   140  136  137 2   
   141  136  148 1   
   142  138  139 1   
   143  138  142 1   
   144  138  143 1   
   145  139  140 1   
   146  139  144 1   
   147  139  145 1   
   148  140  146 1   
   149  140  147 1   
   150  148  149 1   
   151  148  157 1   
   152  149  150 1   
   153  149  152 1   
   154  149  158 1   
   155  150  151 2   
   156  150  163 1   
   157  152  153 1   
   158  152  159 1   
   159  152  160 1   
   160  153  154 1   
   161  153  161 1   
   162  153  162 1   
   163  154  155 1   
   164  154  156 1   
   165  163  164 1   
   166  163  168 1   
   167  164  165 1   
   168  164  166 1   
   169  164  167 1   
   170  170  171 1   
   171  170  172 1   
   172  173  174 1   
   173  173  175 1   
   174  176  177 1   
   175  176  178 1   
@<TRIPOS>SUBSTRUCTURE
     1 MOL         1 TEMP              0 ****  ****    0 ROOT
