@<TRIPOS>MOLECULE
MOL
  189   185     1     0     0
SMALL
resp


@<TRIPOS>ATOM
      1 C1          1.1530   -4.4070    5.8320 c3        1 MOL     -0.484798
      2 C2          1.4220   -3.7250    4.5440 c         1 MOL      0.797361
      3 O1          1.2250   -2.5380    4.3810 o         1 MOL     -0.626178
      4 H1          1.9340   -4.1510    6.5480 hc        1 MOL      0.121463
      5 H2          0.1860   -4.0860    6.2200 hc        1 MOL      0.121463
      6 H3          1.1420   -5.4860    5.6770 hc        1 MOL      0.121463
      7 N1          2.0120   -4.4180    3.5790 n         1 MOL     -0.553338
      8 C3          2.5010   -3.8980    2.3330 c3        1 MOL      0.214525
      9 C4          2.4590   -4.9840    1.1730 c         1 MOL      0.581495
     10 O2          2.7280   -6.1200    1.4120 o         1 MOL     -0.578712
     11 C5          3.9620   -3.3920    2.5420 c3        1 MOL     -0.305319
     12 C6          4.4240   -2.5150    1.4340 c         1 MOL      0.845685
     13 O3          5.6170   -2.1970    1.5380 o         1 MOL     -0.716816
     14 O4          3.7660   -2.2280    0.4180 o         1 MOL     -0.716816
     15 H4          2.0580   -5.4110    3.7400 hn        1 MOL      0.269695
     16 H5          1.9430   -3.0420    1.9510 h1        1 MOL      0.003162
     17 H6          4.5810   -4.2700    2.6840 hc        1 MOL      0.065925
     18 H7          3.9700   -2.7210    3.4050 hc        1 MOL      0.065925
     19 N2          2.1830   -4.5660   -0.0760 n         1 MOL     -0.384894
     20 C7          2.2100   -5.3260   -1.3420 c3        1 MOL      0.036170
     21 C8          3.3100   -4.9060   -2.3260 c         1 MOL      0.558060
     22 O5          3.6410   -5.6430   -3.2040 o         1 MOL     -0.570366
     23 C9          0.8460   -5.1250   -2.0910 c3        1 MOL      0.234705
     24 C10        -0.3880   -5.6450   -1.2970 c3        1 MOL     -0.101566
     25 C11         0.7760   -5.5640   -3.5530 c3        1 MOL     -0.470366
     26 C12        -1.6880   -4.9500   -1.6610 c3        1 MOL      0.001871
     27 H8          1.9400   -3.5920   -0.2060 hn        1 MOL      0.171232
     28 H9          2.3130   -6.3960   -1.2010 h1        1 MOL      0.039479
     29 H10         0.8180   -4.0420   -2.2040 hc        1 MOL      0.033299
     30 H11        -0.2240   -5.5140   -0.2290 hc        1 MOL      0.017519
     31 H12        -0.5090   -6.6960   -1.5450 hc        1 MOL      0.017519
     32 H13         1.3080   -4.8360   -4.1670 hc        1 MOL      0.109068
     33 H14         1.2280   -6.5320   -3.7320 hc        1 MOL      0.109068
     34 H15        -0.2460   -5.4280   -3.8970 hc        1 MOL      0.109068
     35 H16        -2.5600   -5.5150   -1.3330 hc        1 MOL      0.002294
     36 H17        -1.7540   -3.9630   -1.1860 hc        1 MOL      0.002294
     37 H18        -1.8370   -4.8110   -2.7300 hc        1 MOL      0.002294
     38 N3          3.8560   -3.6850   -2.1840 n         1 MOL     -0.540884
     39 C13         4.6420   -3.0660   -3.2680 c3        1 MOL      0.191854
     40 C14         5.9040   -2.4320   -2.8640 c         1 MOL      0.377288
     41 O6          6.7790   -2.2960   -3.7070 o         1 MOL     -0.560578
     42 C15         3.8250   -2.0590   -4.1090 c3        1 MOL     -0.350944
     43 C16         3.0500   -1.0510   -3.2620 c         1 MOL      0.790641
     44 O7          3.4000   -0.7030   -2.1080 o         1 MOL     -0.717902
     45 O8          2.0410   -0.4900   -3.7610 o         1 MOL     -0.717902
     46 H19         3.4930   -3.1580   -1.4010 hn        1 MOL      0.337360
     47 H20         5.0130   -3.8560   -3.9230 h1        1 MOL      0.077703
     48 H21         3.1380   -2.5930   -4.7700 hc        1 MOL      0.093042
     49 H22         4.4760   -1.4860   -4.7680 hc        1 MOL      0.093042
     50 N4          6.0280   -1.9970   -1.5880 n         1 MOL     -0.117323
     51 C17         7.2780   -1.4250   -1.1140 c3        1 MOL     -0.299583
     52 C18         7.5300    0.0450   -1.4350 c         1 MOL      0.530414
     53 O9          8.6320    0.5300   -1.3820 o         1 MOL     -0.619097
     54 H23         5.2420   -2.0940   -0.9570 hn        1 MOL      0.121981
     55 H24         8.0960   -2.0010   -1.5560 h1        1 MOL      0.129465
     56 H25         7.3380   -1.4880   -0.0320 h1        1 MOL      0.129465
     57 N5          6.5070    0.8100   -1.7270 n         1 MOL     -0.215369
     58 C19         6.5510    2.2310   -2.0360 c3        1 MOL     -0.024485
     59 C20         6.7520    3.2420   -0.8520 c         1 MOL      0.518882
     60 O10         7.1440    4.3580   -1.1820 o         1 MOL     -0.557783
     61 C21         5.3480    2.7100   -2.8680 c3        1 MOL     -0.287220
     62 C22         4.0660    2.5090   -2.1300 c         1 MOL      0.822563
     63 O11         4.0940    1.9040   -1.0210 o         1 MOL     -0.697353
     64 O12         3.0330    2.9780   -2.6000 o         1 MOL     -0.697353
     65 H26         5.6400    0.2950   -1.8150 hn        1 MOL      0.252290
     66 H27         7.4290    2.3920   -2.6730 h1        1 MOL      0.092399
     67 H28         5.3860    2.1130   -3.7810 hc        1 MOL      0.072481
     68 H29         5.4470    3.7810   -3.0720 hc        1 MOL      0.072481
     69 N6          6.5250    2.8520    0.4490 n         1 MOL     -0.356200
     70 C23         6.4700    3.7830    1.6070 c3        1 MOL     -0.136305
     71 C24         5.0840    4.4290    1.8980 c         1 MOL      0.486265
     72 O13         5.0310    5.3080    2.7590 o         1 MOL     -0.594762
     73 H30         6.1240    1.9240    0.4660 hn        1 MOL      0.215709
     74 H31         7.2230    4.5500    1.4070 h1        1 MOL      0.095141
     75 H32         6.7160    3.2420    2.5170 h1        1 MOL      0.095141
     76 N7          4.0090    4.0000    1.2170 n         1 MOL     -0.207356
     77 C25         2.6520    4.5450    1.5860 c3        1 MOL     -0.038464
     78 C26         1.6600    3.3980    1.7670 c         1 MOL      0.498118
     79 O14         1.8600    2.2750    1.3460 o         1 MOL     -0.576312
     80 C27         2.1500    5.6300    0.5310 c3        1 MOL     -0.046238
     81 C28         3.1740    6.6730    0.1480 c3        1 MOL     -0.231869
     82 C29         2.6240    7.7910   -0.6700 c         1 MOL      0.791559
     83 N8          3.5040    8.6590   -1.0930 n         1 MOL     -0.880342
     84 O15         1.4500    7.9570   -0.8780 o         1 MOL     -0.588723
     85 H33         4.0210    3.2760    0.5100 hn        1 MOL      0.215683
     86 H34         2.6590    5.0940    2.5220 h1        1 MOL      0.073270
     87 H35         1.3410    6.1760    1.0220 hc        1 MOL      0.051183
     88 H36         1.7680    5.1450   -0.3620 hc        1 MOL      0.051183
     89 H37         4.0070    6.2100   -0.3710 hc        1 MOL      0.076323
     90 H38         3.5270    7.0760    1.1020 hc        1 MOL      0.076323
     91 H39         4.4790    8.4010   -1.1650 hn        1 MOL      0.363525
     92 H40         3.2100    9.6120   -1.2740 hn        1 MOL      0.363525
     93 N9          0.5730    3.6800    2.3250 n         1 MOL     -0.376720
     94 C30        -0.5760    2.8460    2.5710 c3        1 MOL      0.021769
     95 C31        -1.6200    2.9780    1.4800 c         1 MOL      0.360163
     96 O16        -2.2850    3.9940    1.3540 o         1 MOL     -0.549953
     97 C32        -1.1290    2.9990    3.9850 c3        1 MOL      0.420350
     98 C33        -2.2470    2.0450    4.2650 c3        1 MOL     -0.372688
     99 C34        -0.0020    2.7330    4.9900 c3        1 MOL     -0.372688
    100 H41         0.5300    4.6110    2.6950 hn        1 MOL      0.252053
    101 H42        -0.2240    1.8200    2.5190 h1        1 MOL      0.157514
    102 H43        -1.4910    4.0240    4.0550 hc        1 MOL     -0.069089
    103 H44        -2.5260    2.0790    5.3200 hc        1 MOL      0.066738
    104 H45        -3.0880    2.3160    3.6160 hc        1 MOL      0.066738
    105 H46        -1.9720    1.0100    4.0810 hc        1 MOL      0.066738
    106 H47         0.2390    1.6720    4.9790 hc        1 MOL      0.066738
    107 H48         0.8520    3.3650    4.7360 hc        1 MOL      0.066738
    108 H49        -0.5000    3.0910    5.8860 hc        1 MOL      0.066738
    109 N10        -1.8760    1.8120    0.7690 n         1 MOL      0.030599
    110 C35        -2.8940    1.7650   -0.3170 c3        1 MOL     -0.126095
    111 C36        -4.3060    1.3910    0.3330 c         1 MOL      0.382888
    112 O17        -4.2840    0.7770    1.3700 o         1 MOL     -0.326469
    113 C37        -2.2470    0.7840   -1.2880 c3        1 MOL     -0.060762
    114 C38        -3.0640    0.4880   -2.5050 c         1 MOL      0.534156
    115 N11        -2.6540   -0.4350   -3.3720 n         1 MOL     -0.711832
    116 O18        -4.0360    1.1670   -2.8660 o         1 MOL     -0.538623
    117 H50        -1.2220    1.0380    0.7980 hn        1 MOL      0.026599
    118 H51        -3.0350    2.7510   -0.7660 h1        1 MOL      0.084005
    119 H52        -2.0580   -0.1810   -0.8010 hc        1 MOL      0.076894
    120 H53        -1.2430    1.0640   -1.6140 hc        1 MOL      0.076894
    121 H54        -1.8030   -0.9360   -3.1360 hn        1 MOL      0.361320
    122 H55        -3.2630   -0.6130   -4.1570 hn        1 MOL      0.361320
    123 N12        -5.4170    1.4900   -0.3090 n         1 MOL     -0.246356
    124 C39        -6.7320    0.9160    0.0210 c3        1 MOL     -0.155936
    125 C40        -6.5670   -0.5400    0.4940 c         1 MOL      0.456242
    126 O19        -6.9580   -0.9830    1.6150 o         1 MOL     -0.552126
    127 C41        -7.7620    0.9910   -1.1570 c3        1 MOL      0.128085
    128 C42        -8.4080    2.4020   -1.4250 ca        1 MOL     -0.042205
    129 C43        -9.6390    2.6980   -0.8750 ca        1 MOL     -0.105973
    130 C44        -7.9960    3.0970   -2.5790 ca        1 MOL     -0.105973
    131 C45       -10.4060    3.7410   -1.4490 ca        1 MOL     -0.241294
    132 C46        -8.7530    4.1890   -3.0900 ca        1 MOL     -0.241294
    133 C47       -10.0010    4.4740   -2.5490 ca        1 MOL      0.313390
    134 O20       -10.8990    5.3420   -3.1670 oh        1 MOL     -0.541406
    135 H56        -5.5130    1.8980   -1.2370 hn        1 MOL      0.199457
    136 H57        -7.1800    1.3670    0.9020 h1        1 MOL      0.066656
    137 H58        -8.5890    0.3110   -0.9700 hc        1 MOL      0.043988
    138 H59        -7.1730    0.7160   -2.0360 hc        1 MOL      0.043988
    139 H60       -10.0560    2.0330   -0.1400 ha        1 MOL      0.130712
    140 H61        -7.0800    2.7970   -3.0700 ha        1 MOL      0.130712
    141 H62       -11.4020    4.0320   -1.1270 ha        1 MOL      0.116665
    142 H63        -8.3320    4.7860   -3.8930 ha        1 MOL      0.116665
    143 H64       -10.4880    6.0330   -3.7000 ho        1 MOL      0.380230
    144 N13        -5.9000   -1.3330   -0.3540 n         1 MOL     -0.118595
    145 C48        -5.7340   -2.7620   -0.1620 c3        1 MOL     -0.349250
    146 C49        -4.7670   -3.1490    1.0020 c         1 MOL      0.542233
    147 O21        -4.6770   -4.3070    1.4500 o         1 MOL     -0.566132
    148 C50        -5.0990   -3.2830   -1.5600 c3        1 MOL     -0.100250
    149 C51        -5.6670   -2.8830   -2.9640 c3        1 MOL     -0.186518
    150 C52        -7.2510   -2.8000   -2.9520 c         1 MOL      0.701919
    151 O22        -7.8720   -1.8050   -3.3720 o         1 MOL     -0.718918
    152 O23        -7.8940   -3.7890   -2.4770 o         1 MOL     -0.718918
    153 H65        -5.6170   -0.9200   -1.2280 hn        1 MOL      0.238329
    154 H66        -6.7240   -3.1780    0.0190 h1        1 MOL      0.205434
    155 H67        -5.2210   -4.3700   -1.5490 hc        1 MOL      0.086596
    156 H68        -4.0230   -3.1190   -1.5250 hc        1 MOL      0.086596
    157 H69        -5.2600   -3.6310   -3.6440 hc        1 MOL      0.004864
    158 H70        -5.2970   -1.8730   -3.1190 hc        1 MOL      0.004864
    159 N14        -4.1350   -2.1470    1.6330 n         1 MOL     -0.112226
    160 C53        -3.2310   -2.3760    2.7590 c3        1 MOL      0.008246
    161 C54        -3.9600   -1.9650    4.0000 c         1 MOL      0.429331
    162 O24        -3.9080   -2.7360    4.9670 o         1 MOL     -0.560275
    163 C55        -1.9820   -1.5560    2.4740 c3        1 MOL     -0.028588
    164 C56        -1.1360   -2.3480    1.4820 c3        1 MOL      0.035229
    165 C57        -0.0730   -1.4790    0.8850 c         1 MOL      0.889686
    166 O25         0.6410   -1.9580   -0.0270 o         1 MOL     -0.819704
    167 O26         0.0630   -0.2570    1.1150 o         1 MOL     -0.819704
    168 H71        -4.3040   -1.2050    1.3250 hn        1 MOL     -0.031043
    169 H72        -2.9080   -3.4140    2.8040 h1        1 MOL      0.057059
    170 H73        -1.4940   -1.2470    3.3930 hc        1 MOL      0.028514
    171 H74        -2.3050   -0.6180    2.0280 hc        1 MOL      0.028514
    172 H75        -1.7520   -2.7760    0.6820 hc        1 MOL     -0.038388
    173 H76        -0.5520   -3.0780    2.0420 hc        1 MOL     -0.038388
    174 N15        -4.6750   -0.8030    3.9800 n         1 MOL     -0.073791
    175 C58        -5.3920   -0.3200    5.1510 c3        1 MOL     -0.228407
    176 H77        -5.9550   -1.1410    5.5950 h1        1 MOL      0.079082
    177 H78        -4.6790    0.0670    5.8800 h1        1 MOL      0.079082
    178 H79        -6.0780    0.4740    4.8560 h1        1 MOL      0.079082
    179 H80        -4.5640   -0.1890    3.1830 hn        1 MOL      0.162641
    180 Ca1         2.4530    0.0360    0.1420 Ca        1 MOL      1.748652
    181 O27         2.2460   -0.5060    2.8180 oh        1 MOL     -0.913100
    182 H81         1.7050   -1.1410    3.2940 ho        1 MOL      0.429550
    183 H82         2.8040   -0.1180    3.4940 ho        1 MOL      0.429550
    184 O28         4.9030    0.4080    1.4590 oh        1 MOL     -0.913100
    185 H83         5.2930    0.7650    2.2610 ho        1 MOL      0.429550
    186 H84         5.3350   -0.4320    1.3330 ho        1 MOL      0.429550
    187 O29         1.1980    1.2690   -2.1450 oh        1 MOL     -0.913100
    188 H85         1.7790    1.9890   -2.3820 ho        1 MOL      0.429550
    189 H86         1.4390    0.5620   -2.7520 ho        1 MOL      0.429550
@<TRIPOS>BOND
     1    1    2 1   
     2    1    4 1   
     3    1    5 1   
     4    1    6 1   
     5    2    3 2   
     6    2    7 1   
     7    7    8 1   
     8    7   15 1   
     9    8    9 1   
    10    8   11 1   
    11    8   16 1   
    12    9   10 2   
    13    9   19 1   
    14   11   12 1   
    15   11   17 1   
    16   11   18 1   
    17   12   13 1   
    18   12   14 1   
    19   19   20 1   
    20   19   27 1   
    21   20   21 1   
    22   20   23 1   
    23   20   28 1   
    24   21   22 2   
    25   21   38 1   
    26   23   24 1   
    27   23   25 1   
    28   23   29 1   
    29   24   26 1   
    30   24   30 1   
    31   24   31 1   
    32   25   32 1   
    33   25   33 1   
    34   25   34 1   
    35   26   35 1   
    36   26   36 1   
    37   26   37 1   
    38   38   39 1   
    39   38   46 1   
    40   39   40 1   
    41   39   42 1   
    42   39   47 1   
    43   40   41 2   
    44   40   50 1   
    45   42   43 1   
    46   42   48 1   
    47   42   49 1   
    48   43   44 1   
    49   43   45 1   
    50   50   51 1   
    51   50   54 1   
    52   51   52 1   
    53   51   55 1   
    54   51   56 1   
    55   52   53 2   
    56   52   57 1   
    57   57   58 1   
    58   57   65 1   
    59   58   59 1   
    60   58   61 1   
    61   58   66 1   
    62   59   60 2   
    63   59   69 1   
    64   61   62 1   
    65   61   67 1   
    66   61   68 1   
    67   62   63 1   
    68   62   64 1   
    69   69   70 1   
    70   69   73 1   
    71   70   71 1   
    72   70   74 1   
    73   70   75 1   
    74   71   72 2   
    75   71   76 1   
    76   76   77 1   
    77   76   85 1   
    78   77   78 1   
    79   77   80 1   
    80   77   86 1   
    81   78   79 2   
    82   78   93 1   
    83   80   81 1   
    84   80   87 1   
    85   80   88 1   
    86   81   82 1   
    87   81   89 1   
    88   81   90 1   
    89   82   83 1   
    90   82   84 2   
    91   83   91 1   
    92   83   92 1   
    93   93   94 1   
    94   93  100 1   
    95   94   95 1   
    96   94   97 1   
    97   94  101 1   
    98   95   96 2   
    99   95  109 1   
   100   97   98 1   
   101   97   99 1   
   102   97  102 1   
   103   98  103 1   
   104   98  104 1   
   105   98  105 1   
   106   99  106 1   
   107   99  107 1   
   108   99  108 1   
   109  109  110 1   
   110  109  117 1   
   111  110  111 1   
   112  110  113 1   
   113  110  118 1   
   114  111  112 2   
   115  111  123 1   
   116  113  114 1   
   117  113  119 1   
   118  113  120 1   
   119  114  115 1   
   120  114  116 2   
   121  115  121 1   
   122  115  122 1   
   123  123  124 1   
   124  123  135 1   
   125  124  125 1   
   126  124  127 1   
   127  124  136 1   
   128  125  126 2   
   129  125  144 1   
   130  127  128 1   
   131  127  137 1   
   132  127  138 1   
   133  128  129 ar  
   134  128  130 ar  
   135  129  131 ar  
   136  129  139 1   
   137  130  132 ar  
   138  130  140 1   
   139  131  133 ar  
   140  131  141 1   
   141  132  133 ar  
   142  132  142 1   
   143  133  134 1   
   144  134  143 1   
   145  144  145 1   
   146  144  153 1   
   147  145  146 1   
   148  145  148 1   
   149  145  154 1   
   150  146  147 2   
   151  146  159 1   
   152  148  149 1   
   153  148  155 1   
   154  148  156 1   
   155  149  150 1   
   156  149  157 1   
   157  149  158 1   
   158  150  151 1   
   159  150  152 1   
   160  159  160 1   
   161  159  168 1   
   162  160  161 1   
   163  160  163 1   
   164  160  169 1   
   165  161  162 2   
   166  161  174 1   
   167  163  164 1   
   168  163  170 1   
   169  163  171 1   
   170  164  165 1   
   171  164  172 1   
   172  164  173 1   
   173  165  166 1   
   174  165  167 1   
   175  174  175 1   
   176  174  179 1   
   177  175  176 1   
   178  175  177 1   
   179  175  178 1   
   180  181  182 1   
   181  181  183 1   
   182  184  185 1   
   183  184  186 1   
   184  187  188 1   
   185  187  189 1   
@<TRIPOS>SUBSTRUCTURE
     1 MOL         1 TEMP              0 ****  ****    0 ROOT
