@<TRIPOS>MOLECULE
MOL
  179   176     1     0     0
SMALL
resp


@<TRIPOS>ATOM
      1 C1          0.9120    5.0240    4.5810 c3        1 MOL     -0.297317
      2 C2          0.6240    4.2500    3.3560 c         1 MOL      0.659869
      3 O1          1.3140    4.2180    2.3970 o         1 MOL     -0.558958
      4 H1          0.8770    4.3620    5.4460 hc        1 MOL      0.069511
      5 H2          1.9050    5.4680    4.5050 hc        1 MOL      0.069511
      6 H3          0.1680    5.8130    4.6960 hc        1 MOL      0.069511
      7 N1         -0.6280    3.7550    3.2700 n         1 MOL     -0.426002
      8 C3         -1.2810    3.0970    2.1410 c3        1 MOL      0.112560
      9 C4         -1.9280    4.1270    1.3070 c         1 MOL      0.383551
     10 O2         -3.1090    4.4410    1.2820 o         1 MOL     -0.479963
     11 C5         -2.2660    2.0000    2.6210 c3        1 MOL     -0.212641
     12 C6         -2.8540    1.2550    1.4830 c         1 MOL      0.972188
     13 O3         -2.2320    1.2200    0.4130 o         1 MOL     -0.789299
     14 O4         -3.9650    0.7270    1.6880 o         1 MOL     -0.789299
     15 H4         -1.2060    3.8360    4.0880 hn        1 MOL      0.266970
     16 H5         -0.5120    2.6910    1.4860 h1        1 MOL      0.010864
     17 H6         -3.1030    2.4730    3.1430 hc        1 MOL      0.036399
     18 H7         -1.7740    1.3090    3.3130 hc        1 MOL      0.036399
     19 N2         -1.1190    4.7900    0.4960 n         1 MOL     -0.357112
     20 C7         -1.5200    5.9270   -0.3740 c3        1 MOL      0.004189
     21 C8         -2.4200    5.6240   -1.5310 c         1 MOL      0.324024
     22 O5         -3.1340    6.5670   -1.9560 o         1 MOL     -0.508022
     23 C9         -0.2710    6.8130   -0.7280 c3        1 MOL     -0.161006
     24 C10         0.2350    7.6200    0.4510 c3        1 MOL      0.062026
     25 C11         1.4770    8.4680    0.1730 c3        1 MOL     -0.057044
     26 C12         2.2440    8.6730    1.4790 c3        1 MOL     -0.009807
     27 N3          1.4960    9.3650    2.5790 n4        1 MOL     -0.335738
     28 H8         -0.1390    4.6420    0.6640 hn        1 MOL      0.270966
     29 H9         -2.1540    6.5120    0.2890 h1        1 MOL      0.102422
     30 H10        -0.5360    7.5100   -1.5080 hc        1 MOL      0.094693
     31 H11         0.5400    6.2880   -1.2230 hc        1 MOL      0.094693
     32 H12         0.4050    6.8190    1.1710 hc        1 MOL     -0.013297
     33 H13        -0.4930    8.2860    0.9160 hc        1 MOL     -0.013297
     34 H14         1.1610    9.4510   -0.1900 hc        1 MOL      0.057948
     35 H15         2.0930    7.9650   -0.5760 hc        1 MOL      0.057948
     36 H16         3.1510    9.2170    1.2370 hx        1 MOL      0.099744
     37 H17         2.3280    7.6740    1.8860 hx        1 MOL      0.099744
     38 H18         1.3640   10.3290    2.3010 hn        1 MOL      0.321482
     39 H19         0.5620    8.9800    2.6100 hn        1 MOL      0.321482
     40 H20         2.0840    9.3830    3.3950 hn        1 MOL      0.321482
     41 N4         -2.4280    4.4220   -2.1270 n         1 MOL     -0.064198
     42 C13        -3.4920    4.0950   -3.0360 c3        1 MOL     -0.029039
     43 C14        -4.8210    3.8370   -2.3740 c         1 MOL      0.474582
     44 O6         -5.8800    4.1910   -2.9160 o         1 MOL     -0.566532
     45 C15        -3.0410    2.9740   -4.0470 c3        1 MOL     -0.320812
     46 C16        -2.4470    1.7910   -3.3130 c         1 MOL      0.765462
     47 O7         -1.2090    1.6460   -3.3520 o         1 MOL     -0.729677
     48 O8         -3.1200    1.0910   -2.5480 o         1 MOL     -0.729677
     49 H21        -1.6080    3.8300   -2.0470 hn        1 MOL      0.164050
     50 H22        -3.7650    4.9680   -3.6340 h1        1 MOL      0.087675
     51 H23        -2.3030    3.4650   -4.6730 hc        1 MOL      0.093263
     52 H24        -3.8500    2.5730   -4.6650 hc        1 MOL      0.093263
     53 N5         -4.8600    3.2790   -1.1890 n         1 MOL     -0.091082
     54 C17        -5.9580    2.9220   -0.2780 c3        1 MOL     -0.227724
     55 C18        -6.4930    1.4810   -0.3750 c         1 MOL      0.639531
     56 O9         -7.6880    1.3360   -0.1940 o         1 MOL     -0.593578
     57 H25        -3.9990    2.8900   -0.8390 hn        1 MOL      0.141413
     58 H26        -6.7860    3.6020   -0.4810 h1        1 MOL      0.106867
     59 H27        -5.5330    3.0300    0.7200 h1        1 MOL      0.106867
     60 N6         -5.7580    0.4730   -0.7880 n         1 MOL     -0.223185
     61 C19        -6.3160   -0.8200   -1.1490 c3        1 MOL     -0.012672
     62 C20        -6.4810   -1.6810    0.1240 c         1 MOL      0.485048
     63 O10        -7.3080   -2.5460    0.1380 o         1 MOL     -0.548598
     64 C21        -5.6810   -1.4090   -2.4170 c3        1 MOL     -0.209214
     65 C22        -4.3660   -2.1020   -2.1050 c         1 MOL      0.615685
     66 N7         -4.0950   -3.1240   -2.8120 n         1 MOL     -0.657208
     67 O11        -3.5330   -1.6580   -1.3390 o         1 MOL     -0.598628
     68 H28        -4.7510    0.5630   -0.7840 hn        1 MOL      0.044635
     69 H29        -7.3580   -0.5740   -1.3590 h1        1 MOL      0.122082
     70 H30        -5.4860   -0.5890   -3.1160 hc        1 MOL      0.097605
     71 H31        -6.4130   -2.0690   -2.8900 hc        1 MOL      0.097605
     72 H32        -4.7490   -3.2530   -3.5680 hn        1 MOL      0.319922
     73 H33        -3.3520   -3.8060   -2.7450 hn        1 MOL      0.319922
     74 N8         -5.8510   -1.4320    1.2680 n         1 MOL     -0.352487
     75 C23        -5.8250   -2.4090    2.3830 c3        1 MOL     -0.108891
     76 C24        -4.4200   -3.1190    2.5890 c         1 MOL      0.458551
     77 O12        -4.3290   -3.7820    3.6130 o         1 MOL     -0.563385
     78 H34        -5.2880   -0.6000    1.3710 hn        1 MOL      0.319472
     79 H35        -6.6320   -3.1460    2.3800 h1        1 MOL      0.110650
     80 H36        -5.9850   -1.9470    3.3530 h1        1 MOL      0.110650
     81 N9         -3.5100   -2.9720    1.6500 n         1 MOL     -0.249970
     82 C25        -2.2110   -3.6660    1.6350 c3        1 MOL      0.180704
     83 C26        -1.0970   -2.6340    1.5000 c         1 MOL      0.504468
     84 O13        -1.2150   -1.5490    0.8790 o         1 MOL     -0.706419
     85 C27        -2.2650   -4.6100    0.4950 c3        1 MOL      0.010964
     86 C28        -3.3030   -5.7290    0.5630 ca        1 MOL      0.017990
     87 C29        -4.2590   -5.8610   -0.4560 ca        1 MOL     -0.136773
     88 C30        -3.1580   -6.6540    1.5590 ca        1 MOL     -0.136773
     89 C31        -5.0880   -6.9990   -0.4330 ca        1 MOL     -0.286276
     90 C32        -3.9880   -7.8000    1.5700 ca        1 MOL     -0.286276
     91 C33        -4.9720   -7.9720    0.6210 ca        1 MOL      0.373144
     92 O14        -5.7860   -9.0620    0.6030 oh        1 MOL     -0.488691
     93 H37        -3.8210   -2.4130    0.8790 hn        1 MOL      0.238273
     94 H38        -2.0820   -4.2230    2.5700 h1        1 MOL      0.027189
     95 H39        -1.3700   -5.2300    0.4010 hc        1 MOL      0.000474
     96 H40        -2.4120   -4.0700   -0.4370 hc        1 MOL      0.000474
     97 H41        -4.3540   -5.0720   -1.1900 ha        1 MOL      0.134780
     98 H42        -2.3950   -6.5770    2.3230 ha        1 MOL      0.134780
     99 H43        -5.8270   -7.1590   -1.2050 ha        1 MOL      0.149535
    100 H44        -3.8700   -8.5940    2.2880 ha        1 MOL      0.149535
    101 H45        -5.4770   -9.7250    1.2230 ho        1 MOL      0.359005
    102 N10         0.1260   -2.9630    1.9710 n         1 MOL     -0.491907
    103 C34         1.3570   -2.2600    1.6780 c3        1 MOL      0.076808
    104 C35         2.3830   -3.2550    1.1930 c         1 MOL      0.473401
    105 O15         2.4360   -4.3970    1.6950 o         1 MOL     -0.527470
    106 C36         1.7460   -1.4470    2.9120 c3        1 MOL      0.041722
    107 C37         0.8060   -0.1750    3.1170 c3        1 MOL      0.135088
    108 C38         3.1260   -0.8330    2.8610 c3        1 MOL      0.023612
    109 C39         1.0430    0.6200    4.4250 c3        1 MOL     -0.235571
    110 H46         0.1730   -3.7030    2.6590 hn        1 MOL      0.299005
    111 H47         1.1870   -1.5570    0.8700 h1        1 MOL     -0.085534
    112 H48         1.6820   -1.9910    3.8530 hc        1 MOL      0.025205
    113 H49        -0.1630   -0.6760    3.1420 hc        1 MOL      0.017664
    114 H50         0.8370    0.4840    2.2480 hc        1 MOL      0.017664
    115 H51         3.8950   -1.5880    2.7460 hc        1 MOL     -0.034893
    116 H52         3.2590   -0.0550    2.1090 hc        1 MOL     -0.034893
    117 H53         3.2730   -0.4810    3.8800 hc        1 MOL     -0.034893
    118 H54         1.8700    1.2960    4.2470 hc        1 MOL      0.053050
    119 H55         0.2170    1.3250    4.5600 hc        1 MOL      0.053050
    120 H56         1.1890   -0.0420    5.2750 hc        1 MOL      0.053050
    121 N11         3.2200   -2.7290    0.2330 n         1 MOL     -0.403102
    122 C40         4.2750   -3.5280   -0.3390 c3        1 MOL      0.113400
    123 C41         5.6730   -3.0360    0.1270 c         1 MOL      0.267290
    124 O16         5.8330   -1.9390    0.6190 o         1 MOL     -0.269124
    125 C42         4.2320   -3.3990   -1.8300 c3        1 MOL     -0.158440
    126 O17         4.7540   -2.1990   -2.2420 oh        1 MOL     -0.360982
    127 H57         3.0850   -1.7670   -0.0360 hn        1 MOL      0.558029
    128 H58         4.1340   -4.5780   -0.0690 h1        1 MOL      0.061730
    129 H59         3.2630   -3.7120   -2.2240 h1        1 MOL      0.062278
    130 H60         4.9630   -4.1580   -2.1000 h1        1 MOL      0.062278
    131 H61         4.7220   -2.3140   -3.1960 ho        1 MOL      0.372200
    132 N12         6.6910   -3.9190    0.0440 n         1 MOL     -0.398708
    133 C43         8.0870   -3.5510    0.2600 c3        1 MOL      0.214131
    134 C44         8.5550   -2.2550   -0.4220 c         1 MOL      0.310361
    135 O18         9.3190   -1.4780    0.1920 o         1 MOL     -0.487417
    136 C45         8.9100   -4.7710   -0.0800 c3        1 MOL     -0.370930
    137 H62         6.4880   -4.8940   -0.1280 hn        1 MOL      0.293746
    138 H63         8.1440   -3.4230    1.3470 h1        1 MOL      0.063258
    139 H64         9.9150   -4.3930    0.0820 hc        1 MOL      0.104587
    140 H65         8.6560   -5.5860    0.5940 hc        1 MOL      0.104587
    141 H66         8.6540   -5.0870   -1.0890 hc        1 MOL      0.104587
    142 N13         8.0850   -2.0000   -1.6340 n         1 MOL     -0.145663
    143 C46         8.4260   -0.8470   -2.3490 c3        1 MOL      0.051724
    144 C47         7.5580    0.4240   -1.8870 c         1 MOL      0.359859
    145 O19         8.1270    1.4560   -1.6780 o         1 MOL     -0.491722
    146 C48         8.1970   -1.0920   -3.8720 c3        1 MOL     -0.280183
    147 H67         7.6530   -2.7630   -2.1210 hn        1 MOL      0.197574
    148 H68         9.4810   -0.6250   -2.1990 h1        1 MOL      0.098799
    149 H69         7.2740   -1.6140   -4.1410 hc        1 MOL      0.073269
    150 H70         8.1140   -0.1500   -4.4020 hc        1 MOL      0.073269
    151 H71         8.9700   -1.7380   -4.3020 hc        1 MOL      0.073269
    152 N14         6.3360    0.1540   -1.4200 n         1 MOL     -0.007532
    153 C49         5.5210    1.2000   -0.7810 c3        1 MOL     -0.012195
    154 C50         5.9850    1.6300    0.5790 c         1 MOL      0.440575
    155 O20         6.0610    2.8080    0.8130 o         1 MOL     -0.554196
    156 C51         4.0240    0.7960   -0.7050 c3        1 MOL     -0.003215
    157 C52         3.3160    0.7080   -2.0830 c3        1 MOL     -0.356164
    158 C53         1.9520    0.0420   -1.9320 c         1 MOL      0.909297
    159 O21         1.0850    0.4350   -1.1270 o         1 MOL     -0.787298
    160 O22         1.7030   -0.9810   -2.5490 o         1 MOL     -0.787298
    161 H72         5.9180   -0.7510   -1.5190 hn        1 MOL     -0.064059
    162 H73         5.6900    2.0680   -1.4170 h1        1 MOL      0.076242
    163 H74         3.5630    1.5720   -0.0940 hc        1 MOL      0.051231
    164 H75         3.9700   -0.1830   -0.2260 hc        1 MOL      0.051231
    165 H76         3.9610    0.0880   -2.7070 hc        1 MOL      0.071861
    166 H77         3.1160    1.7210   -2.4230 hc        1 MOL      0.071861
    167 N15         6.3990    0.6840    1.4930 n         1 MOL     -0.049003
    168 C54         6.9330    0.8660    2.8310 c3        1 MOL     -0.315493
    169 H78         6.4810    0.1360    3.5030 h1        1 MOL      0.112934
    170 H79         8.0130    0.7240    2.8150 h1        1 MOL      0.112934
    171 H80         6.7030    1.8720    3.1800 h1        1 MOL      0.112934
    172 H81         6.2440   -0.2530    1.1410 hn        1 MOL      0.049922
    173 Ca1        -1.3250   -0.3680   -1.3920 Ca        1 MOL      1.801139
    174 O23         0.1630   -2.8260   -1.5000 oh        1 MOL     -0.843998
    175 H82         0.4400   -3.7290   -1.6350 ho        1 MOL      0.408613
    176 H83         0.8770   -2.2950   -1.8550 ho        1 MOL      0.408613
    177 O24        -1.4040   -1.4250   -3.8190 oh        1 MOL     -0.843998
    178 H84        -2.0670   -2.0620   -4.0830 ho        1 MOL      0.408613
    179 H85        -0.6680   -1.5830   -4.4120 ho        1 MOL      0.408613
@<TRIPOS>BOND
     1    1    2 1   
     2    1    4 1   
     3    1    5 1   
     4    1    6 1   
     5    2    3 2   
     6    2    7 1   
     7    7    8 1   
     8    7   15 1   
     9    8    9 1   
    10    8   11 1   
    11    8   16 1   
    12    9   10 2   
    13    9   19 1   
    14   11   12 1   
    15   11   17 1   
    16   11   18 1   
    17   12   13 1   
    18   12   14 1   
    19   19   20 1   
    20   19   28 1   
    21   20   21 1   
    22   20   23 1   
    23   20   29 1   
    24   21   22 2   
    25   21   41 1   
    26   23   24 1   
    27   23   30 1   
    28   23   31 1   
    29   24   25 1   
    30   24   32 1   
    31   24   33 1   
    32   25   26 1   
    33   25   34 1   
    34   25   35 1   
    35   26   27 1   
    36   26   36 1   
    37   26   37 1   
    38   27   38 1   
    39   27   39 1   
    40   27   40 1   
    41   41   42 1   
    42   41   49 1   
    43   42   43 1   
    44   42   45 1   
    45   42   50 1   
    46   43   44 2   
    47   43   53 1   
    48   45   46 1   
    49   45   51 1   
    50   45   52 1   
    51   46   47 1   
    52   46   48 1   
    53   53   54 1   
    54   53   57 1   
    55   54   55 1   
    56   54   58 1   
    57   54   59 1   
    58   55   56 2   
    59   55   60 1   
    60   60   61 1   
    61   60   68 1   
    62   61   62 1   
    63   61   64 1   
    64   61   69 1   
    65   62   63 2   
    66   62   74 1   
    67   64   65 1   
    68   64   70 1   
    69   64   71 1   
    70   65   66 1   
    71   65   67 2   
    72   66   72 1   
    73   66   73 1   
    74   74   75 1   
    75   74   78 1   
    76   75   76 1   
    77   75   79 1   
    78   75   80 1   
    79   76   77 2   
    80   76   81 1   
    81   81   82 1   
    82   81   93 1   
    83   82   83 1   
    84   82   85 1   
    85   82   94 1   
    86   83   84 2   
    87   83  102 1   
    88   85   86 1   
    89   85   95 1   
    90   85   96 1   
    91   86   87 ar  
    92   86   88 ar  
    93   87   89 ar  
    94   87   97 1   
    95   88   90 ar  
    96   88   98 1   
    97   89   91 ar  
    98   89   99 1   
    99   90   91 ar  
   100   90  100 1   
   101   91   92 1   
   102   92  101 1   
   103  102  103 1   
   104  102  110 1   
   105  103  104 1   
   106  103  106 1   
   107  103  111 1   
   108  104  105 2   
   109  104  121 1   
   110  106  107 1   
   111  106  108 1   
   112  106  112 1   
   113  107  109 1   
   114  107  113 1   
   115  107  114 1   
   116  108  115 1   
   117  108  116 1   
   118  108  117 1   
   119  109  118 1   
   120  109  119 1   
   121  109  120 1   
   122  121  122 1   
   123  121  127 1   
   124  122  123 1   
   125  122  125 1   
   126  122  128 1   
   127  123  124 2   
   128  123  132 1   
   129  125  126 1   
   130  125  129 1   
   131  125  130 1   
   132  126  131 1   
   133  132  133 1   
   134  132  137 1   
   135  133  134 1   
   136  133  136 1   
   137  133  138 1   
   138  134  135 2   
   139  134  142 1   
   140  136  139 1   
   141  136  140 1   
   142  136  141 1   
   143  142  143 1   
   144  142  147 1   
   145  143  144 1   
   146  143  146 1   
   147  143  148 1   
   148  144  145 2   
   149  144  152 1   
   150  146  149 1   
   151  146  150 1   
   152  146  151 1   
   153  152  153 1   
   154  152  161 1   
   155  153  154 1   
   156  153  156 1   
   157  153  162 1   
   158  154  155 2   
   159  154  167 1   
   160  156  157 1   
   161  156  163 1   
   162  156  164 1   
   163  157  158 1   
   164  157  165 1   
   165  157  166 1   
   166  158  159 1   
   167  158  160 1   
   168  167  168 1   
   169  167  172 1   
   170  168  169 1   
   171  168  170 1   
   172  168  171 1   
   173  174  175 1   
   174  174  176 1   
   175  177  178 1   
   176  177  179 1   
@<TRIPOS>SUBSTRUCTURE
     1 MOL         1 TEMP              0 ****  ****    0 ROOT
