@<TRIPOS>MOLECULE
MOL
  186   183     1     0     0
SMALL
resp


@<TRIPOS>ATOM
      1 C1          0.4200    2.5180    5.3280 c3        1 MOL     -0.359857
      2 C2         -0.1100    2.5220    3.9040 c         1 MOL      0.822320
      3 O1          0.6350    2.9410    3.0150 o         1 MOL     -0.606183
      4 H1          0.3760    1.5050    5.7290 hc        1 MOL      0.083682
      5 H2          1.4530    2.8650    5.3330 hc        1 MOL      0.083682
      6 H3         -0.1900    3.1790    5.9450 hc        1 MOL      0.083682
      7 N1         -1.3730    2.0950    3.7810 n         1 MOL     -0.779364
      8 C3         -2.0140    1.6070    2.5710 c3        1 MOL      0.475024
      9 C4         -2.5480    2.8400    1.7670 c         1 MOL      0.279524
     10 O2         -3.7100    3.1700    1.9410 o         1 MOL     -0.505229
     11 C5         -3.0410    0.5180    2.8950 c3        1 MOL     -0.274777
     12 C6         -3.7070    0.0060    1.5790 c         1 MOL      0.725565
     13 O3         -4.6300   -0.8190    1.7000 o         1 MOL     -0.671595
     14 O4         -3.3070    0.3880    0.4810 o         1 MOL     -0.671595
     15 H4         -1.9210    1.9240    4.6060 hn        1 MOL      0.344493
     16 H5         -1.2830    1.1030    1.9500 h1        1 MOL     -0.060409
     17 H6         -3.7990    0.9510    3.5540 hc        1 MOL      0.064348
     18 H7         -2.5520   -0.3080    3.4100 hc        1 MOL      0.064348
     19 N2         -1.7910    3.6110    1.0040 n         1 MOL      0.014237
     20 C7         -2.1010    4.9380    0.5060 c3        1 MOL     -0.094314
     21 C8         -3.1090    4.9980   -0.6180 c         1 MOL      0.438362
     22 O5         -3.9470    5.8680   -0.7570 o         1 MOL     -0.518831
     23 C9         -0.8160    5.5960    0.0380 c3        1 MOL      0.003489
     24 C10         0.3030    5.6730    1.0260 c3        1 MOL      0.136855
     25 C11        -0.0570    6.3460    2.2870 c3        1 MOL     -0.101510
     26 C12         1.1370    6.8050    3.1600 c3        1 MOL      0.101445
     27 N3          0.6620    7.5620    4.3860 n4        1 MOL     -0.430240
     28 H8         -0.8120    3.3350    1.0480 hn        1 MOL      0.140599
     29 H9         -2.4630    5.4230    1.4160 h1        1 MOL      0.052807
     30 H10        -1.0390    6.6260   -0.2540 hc        1 MOL      0.015952
     31 H11        -0.4180    5.1410   -0.8690 hc        1 MOL      0.015952
     32 H12         1.0460    6.2980    0.5300 hc        1 MOL     -0.016084
     33 H13         0.8480    4.7460    1.2400 hc        1 MOL     -0.016084
     34 H14        -0.4960    5.5670    2.9170 hc        1 MOL      0.029082
     35 H15        -0.7660    7.1310    2.0720 hc        1 MOL      0.029082
     36 H16         1.8550    7.3710    2.5710 hx        1 MOL      0.062399
     37 H17         1.5700    5.8290    3.4130 hx        1 MOL      0.062399
     38 H18         1.4100    7.8480    5.0060 hn        1 MOL      0.345045
     39 H19         0.2650    8.4520    4.1210 hn        1 MOL      0.345045
     40 H20         0.0030    6.9630    4.8500 hn        1 MOL      0.345045
     41 N4         -3.0460    3.9850   -1.5050 n         1 MOL     -0.267878
     42 C13        -4.1270    3.8240   -2.4590 c3        1 MOL     -0.014891
     43 C14        -5.3870    3.1490   -1.8480 c         1 MOL      0.416739
     44 O6         -6.4860    3.3880   -2.3500 o         1 MOL     -0.519827
     45 C15        -3.7370    2.9900   -3.6700 c3        1 MOL     -0.256425
     46 C16        -3.1120    1.6830   -3.2110 c         1 MOL      0.781192
     47 O7         -1.9240    1.6110   -2.9880 o         1 MOL     -0.766980
     48 O8         -3.8420    0.6860   -2.8580 o         1 MOL     -0.766980
     49 H21        -2.4790    3.1770   -1.2750 hn        1 MOL      0.184791
     50 H22        -4.3860    4.7940   -2.8950 h1        1 MOL      0.115787
     51 H23        -3.0230    3.4810   -4.3280 hc        1 MOL      0.072916
     52 H24        -4.5810    2.7200   -4.3150 hc        1 MOL      0.072916
     53 N5         -5.3080    2.4420   -0.6530 n         1 MOL     -0.027908
     54 C17        -6.5420    1.8140   -0.0300 c3        1 MOL     -0.375881
     55 C18        -7.1080    0.5630   -0.6820 c         1 MOL      0.612236
     56 O9         -8.3220    0.3790   -0.5970 o         1 MOL     -0.589088
     57 H25        -4.4420    2.3170   -0.1520 hn        1 MOL      0.058895
     58 H26        -7.3510    2.5260   -0.1900 h1        1 MOL      0.148789
     59 H27        -6.3890    1.6750    1.0400 h1        1 MOL      0.148789
     60 N6         -6.2810   -0.2890   -1.2950 n         1 MOL     -0.304734
     61 C19        -6.6760   -1.6080   -1.8550 c3        1 MOL      0.039115
     62 C20        -6.9170   -2.7220   -0.8300 c         1 MOL      0.385323
     63 O10        -7.2960   -3.8790   -1.0840 o         1 MOL     -0.537617
     64 C21        -5.7660   -2.0550   -2.9880 c3        1 MOL     -0.270284
     65 C22        -4.3300   -2.2830   -2.7060 c         1 MOL      0.819018
     66 O11        -3.8910   -2.2940   -1.5400 o         1 MOL     -0.686316
     67 O12        -3.5150   -2.3340   -3.6480 o         1 MOL     -0.686316
     68 H28        -5.3290    0.0030   -1.4460 hn        1 MOL      0.236894
     69 H29        -7.6400   -1.4350   -2.3390 h1        1 MOL      0.087337
     70 H30        -5.7820   -1.2580   -3.7250 hc        1 MOL      0.078880
     71 H31        -6.2320   -2.9540   -3.3800 hc        1 MOL      0.078880
     72 N7         -6.4580   -2.4030    0.3600 n         1 MOL     -0.240891
     73 C23        -6.4640   -3.3760    1.4510 c3        1 MOL     -0.040965
     74 C24        -5.1490   -3.9980    1.6380 c         1 MOL      0.525210
     75 O13        -5.0480   -4.9810    2.4200 o         1 MOL     -0.600022
     76 H32        -5.8860   -1.5720    0.4510 hn        1 MOL      0.210824
     77 H33        -7.2250   -4.1450    1.3370 h1        1 MOL      0.074932
     78 H34        -6.7150   -2.8450    2.3750 h1        1 MOL      0.074932
     79 N8         -4.0950   -3.6140    0.8620 n         1 MOL     -0.302748
     80 C25        -2.7730   -4.3580    0.9620 c3        1 MOL     -0.248172
     81 C26        -1.5900   -3.4380    1.0390 c         1 MOL      0.682437
     82 O14        -1.5260   -2.3450    0.5310 o         1 MOL     -0.727389
     83 C27        -2.5340   -5.3470   -0.1800 c3        1 MOL      0.569424
     84 C28        -3.2900   -6.7000   -0.0500 c3        1 MOL     -0.370721
     85 O15        -2.8750   -4.7540   -1.4180 oh        1 MOL     -0.647429
     86 H35        -4.1270   -2.8280    0.2350 hn        1 MOL      0.325718
     87 H36        -2.8200   -4.9750    1.8650 h1        1 MOL      0.115177
     88 H37        -1.4810   -5.6230   -0.1520 h1        1 MOL     -0.080317
     89 H38        -3.0030   -3.8090   -1.3150 ho        1 MOL      0.355451
     90 H39        -2.8300   -7.1580    0.8250 hc        1 MOL      0.089909
     91 H40        -4.3600   -6.6230    0.1260 hc        1 MOL      0.089909
     92 H41        -3.1420   -7.3030   -0.9370 hc        1 MOL      0.089909
     93 N9         -0.5900   -3.8160    1.7810 n         1 MOL     -0.451393
     94 C29         0.6810   -3.0860    1.9430 c3        1 MOL      0.034574
     95 C30         1.6640   -3.7690    1.0470 c         1 MOL      0.387176
     96 O16         1.9640   -4.9650    1.0930 o         1 MOL     -0.523529
     97 C31         1.3250   -2.9610    3.3260 c3        1 MOL      0.181738
     98 C32         0.2610   -2.5570    4.3650 c3        1 MOL      0.056618
     99 C33         2.5720   -2.0800    3.4180 c3        1 MOL     -0.028430
    100 C34         0.5910   -2.7520    5.8280 c3        1 MOL     -0.172813
    101 H42        -0.7880   -4.6530    2.3090 hn        1 MOL      0.258692
    102 H43         0.5750   -2.0600    1.5830 h1        1 MOL      0.123305
    103 H44         1.7070   -3.9170    3.6550 hc        1 MOL     -0.028329
    104 H45        -0.6920   -3.0510    4.1830 hc        1 MOL     -0.009535
    105 H46         0.0300   -1.5330    4.0640 hc        1 MOL     -0.009535
    106 H47         3.3730   -2.4740    2.8010 hc        1 MOL     -0.013243
    107 H48         2.3180   -1.0940    3.0280 hc        1 MOL     -0.013243
    108 H49         2.9950   -1.9050    4.4070 hc        1 MOL     -0.013243
    109 H50         1.5020   -2.1860    6.0060 hc        1 MOL      0.041789
    110 H51        -0.1720   -2.2710    6.4400 hc        1 MOL      0.041789
    111 H52         0.6960   -3.7880    6.1350 hc        1 MOL      0.041789
    112 N10         2.2970   -2.9370    0.2110 n         1 MOL     -0.074279
    113 C35         3.4460   -3.2800   -0.6430 c3        1 MOL      0.048405
    114 C36         4.7880   -2.8280   -0.1240 c         1 MOL      0.278912
    115 O17         4.7910   -2.0330    0.8120 o         1 MOL     -0.362194
    116 C37         3.3140   -2.4930   -1.9700 c3        1 MOL      0.230482
    117 C38         2.3630   -3.0990   -2.9800 c3        1 MOL     -0.276904
    118 O18         3.0320   -1.1390   -1.8690 oh        1 MOL     -0.539166
    119 H53         2.1090   -1.9470    0.2910 hn        1 MOL      0.036404
    120 H54         3.4510   -4.3580   -0.8150 h1        1 MOL      0.074038
    121 H55         4.2570   -2.4830   -2.5160 h1        1 MOL      0.038694
    122 H56         2.1020   -0.9660   -1.7040 ho        1 MOL      0.382049
    123 H57         1.3520   -3.1050   -2.5840 hc        1 MOL      0.063415
    124 H58         2.4150   -2.3760   -3.8030 hc        1 MOL      0.063415
    125 H59         2.6330   -4.0870   -3.3580 hc        1 MOL      0.063415
    126 N11         5.8890   -3.2050   -0.7450 n         1 MOL     -0.218858
    127 C39         7.2520   -2.8540   -0.2880 c3        1 MOL      0.053776
    128 C40         7.4390   -1.3470   -0.4130 c         1 MOL      0.256234
    129 O19         8.0140   -0.7790    0.5130 o         1 MOL     -0.472833
    130 C41         8.3400   -3.5930   -1.0890 c3        1 MOL      0.507395
    131 C42         9.6650   -3.5690   -0.3480 c3        1 MOL     -0.496320
    132 O20         8.0480   -4.9400   -1.3580 oh        1 MOL     -0.613907
    133 H60         5.7640   -3.8160   -1.5320 hn        1 MOL      0.170211
    134 H61         7.3660   -3.0870    0.7640 h1        1 MOL      0.082992
    135 H62         8.3000   -3.0790   -2.0570 h1        1 MOL     -0.095813
    136 H63         8.6400   -5.0520   -2.1040 ho        1 MOL      0.387089
    137 H64         9.6540   -4.1860    0.5460 hc        1 MOL      0.131165
    138 H65        10.4270   -4.0360   -0.9780 hc        1 MOL      0.131165
    139 H66         9.9080   -2.5310   -0.1020 hc        1 MOL      0.131165
    140 N12         6.9950   -0.6630   -1.4280 n         1 MOL     -0.212993
    141 C43         6.9360    0.7700   -1.5950 c3        1 MOL      0.065290
    142 C44         6.1280    1.4790   -0.4800 c         1 MOL      0.248702
    143 O21         6.5940    2.4620    0.1000 o         1 MOL     -0.474328
    144 C45         6.2840    1.0380   -2.9440 c3        1 MOL     -0.154078
    145 C46         5.8040    2.4990   -3.0900 c3        1 MOL      0.263338
    146 C47         5.7580    2.9440   -4.5660 c3        1 MOL     -0.202739
    147 C48         5.4240    4.4590   -4.5700 c3        1 MOL      0.218352
    148 N13         5.1000    4.9920   -5.9240 n4        1 MOL     -0.459399
    149 H67         6.5860   -1.2330   -2.1500 hn        1 MOL      0.206799
    150 H68         7.8630    1.3390   -1.6640 h1        1 MOL      0.080551
    151 H69         5.4410    0.3510   -3.0160 hc        1 MOL      0.027858
    152 H70         6.9950    0.8010   -3.7330 hc        1 MOL      0.027858
    153 H71         6.4380    3.1300   -2.4640 hc        1 MOL     -0.054944
    154 H72         4.8520    2.6830   -2.5820 hc        1 MOL     -0.054944
    155 H73         4.9500    2.3500   -4.9990 hc        1 MOL      0.071784
    156 H74         6.7620    2.8500   -4.9820 hc        1 MOL      0.071784
    157 H75         6.1800    5.1000   -4.1260 hx        1 MOL      0.051523
    158 H76         4.5680    4.7340   -3.9440 hx        1 MOL      0.051523
    159 H77         4.2110    4.7580   -6.3460 hn        1 MOL      0.326421
    160 H78         4.9950    5.9960   -5.8270 hn        1 MOL      0.326421
    161 H79         5.8020    4.7270   -6.5970 hn        1 MOL      0.326421
    162 N14         4.9250    0.9660   -0.0990 n         1 MOL      0.214909
    163 C49         4.0270    1.7310    0.8580 c3        1 MOL     -0.022476
    164 C50         4.5890    1.6290    2.3010 c         1 MOL      0.309120
    165 O22         4.7800    2.6870    2.9380 o         1 MOL     -0.517323
    166 C51         2.5720    1.1540    0.7710 c3        1 MOL      0.251293
    167 C52         1.9210    1.7730   -0.5020 c3        1 MOL     -0.068006
    168 C53         0.6060    1.0330   -0.8250 c         1 MOL      0.742288
    169 O23        -0.5250    1.4620   -0.3760 o         1 MOL     -0.747663
    170 O24         0.6650   -0.0920   -1.3530 o         1 MOL     -0.747663
    171 H80         4.5230    0.2580   -0.7070 hn        1 MOL     -0.036871
    172 H81         4.0470    2.7930    0.6280 h1        1 MOL      0.022916
    173 H82         1.9930    1.3620    1.6780 hc        1 MOL     -0.048445
    174 H83         2.5930    0.0720    0.6900 hc        1 MOL     -0.048445
    175 H84         2.5650    1.6070   -1.3660 hc        1 MOL     -0.024084
    176 H85         1.7260    2.8370   -0.4040 hc        1 MOL     -0.024084
    177 N15         5.0480    0.4170    2.6660 n         1 MOL     -0.045113
    178 C54         5.9150    0.3170    3.8770 c3        1 MOL     -0.257055
    179 H86         5.8860   -0.7030    4.2600 h1        1 MOL      0.108451
    180 H87         6.9410    0.5780    3.6130 h1        1 MOL      0.108451
    181 H88         5.5520    1.0020    4.6420 h1        1 MOL      0.108451
    182 H89         4.9230   -0.3500    2.0300 hn        1 MOL      0.096221
    183 Ca1        -1.9700   -0.5940   -1.3680 Ca        1 MOL      1.768497
    184 O25        -0.7640   -2.0770   -3.1930 oh        1 MOL     -0.971667
    185 H90         0.0710   -1.7990   -3.5660 ho        1 MOL      0.460920
    186 H91        -1.1110   -2.7230   -3.8030 ho        1 MOL      0.460920
@<TRIPOS>BOND
     1    1    2 1   
     2    1    4 1   
     3    1    5 1   
     4    1    6 1   
     5    2    3 2   
     6    2    7 1   
     7    7    8 1   
     8    7   15 1   
     9    8    9 1   
    10    8   11 1   
    11    8   16 1   
    12    9   10 2   
    13    9   19 1   
    14   11   12 1   
    15   11   17 1   
    16   11   18 1   
    17   12   13 1   
    18   12   14 1   
    19   19   20 1   
    20   19   28 1   
    21   20   21 1   
    22   20   23 1   
    23   20   29 1   
    24   21   22 2   
    25   21   41 1   
    26   23   24 1   
    27   23   30 1   
    28   23   31 1   
    29   24   25 1   
    30   24   32 1   
    31   24   33 1   
    32   25   26 1   
    33   25   34 1   
    34   25   35 1   
    35   26   27 1   
    36   26   36 1   
    37   26   37 1   
    38   27   38 1   
    39   27   39 1   
    40   27   40 1   
    41   41   42 1   
    42   41   49 1   
    43   42   43 1   
    44   42   45 1   
    45   42   50 1   
    46   43   44 2   
    47   43   53 1   
    48   45   46 1   
    49   45   51 1   
    50   45   52 1   
    51   46   47 1   
    52   46   48 1   
    53   53   54 1   
    54   53   57 1   
    55   54   55 1   
    56   54   58 1   
    57   54   59 1   
    58   55   56 2   
    59   55   60 1   
    60   60   61 1   
    61   60   68 1   
    62   61   62 1   
    63   61   64 1   
    64   61   69 1   
    65   62   63 2   
    66   62   72 1   
    67   64   65 1   
    68   64   70 1   
    69   64   71 1   
    70   65   66 1   
    71   65   67 1   
    72   72   73 1   
    73   72   76 1   
    74   73   74 1   
    75   73   77 1   
    76   73   78 1   
    77   74   75 2   
    78   74   79 1   
    79   79   80 1   
    80   79   86 1   
    81   80   81 1   
    82   80   83 1   
    83   80   87 1   
    84   81   82 2   
    85   81   93 1   
    86   83   84 1   
    87   83   85 1   
    88   83   88 1   
    89   84   90 1   
    90   84   91 1   
    91   84   92 1   
    92   85   89 1   
    93   93   94 1   
    94   93  101 1   
    95   94   95 1   
    96   94   97 1   
    97   94  102 1   
    98   95   96 2   
    99   95  112 1   
   100   97   98 1   
   101   97   99 1   
   102   97  103 1   
   103   98  100 1   
   104   98  104 1   
   105   98  105 1   
   106   99  106 1   
   107   99  107 1   
   108   99  108 1   
   109  100  109 1   
   110  100  110 1   
   111  100  111 1   
   112  112  113 1   
   113  112  119 1   
   114  113  114 1   
   115  113  116 1   
   116  113  120 1   
   117  114  115 2   
   118  114  126 1   
   119  116  117 1   
   120  116  118 1   
   121  116  121 1   
   122  117  123 1   
   123  117  124 1   
   124  117  125 1   
   125  118  122 1   
   126  126  127 1   
   127  126  133 1   
   128  127  128 1   
   129  127  130 1   
   130  127  134 1   
   131  128  129 2   
   132  128  140 1   
   133  130  131 1   
   134  130  132 1   
   135  130  135 1   
   136  131  137 1   
   137  131  138 1   
   138  131  139 1   
   139  132  136 1   
   140  140  141 1   
   141  140  149 1   
   142  141  142 1   
   143  141  144 1   
   144  141  150 1   
   145  142  143 2   
   146  142  162 1   
   147  144  145 1   
   148  144  151 1   
   149  144  152 1   
   150  145  146 1   
   151  145  153 1   
   152  145  154 1   
   153  146  147 1   
   154  146  155 1   
   155  146  156 1   
   156  147  148 1   
   157  147  157 1   
   158  147  158 1   
   159  148  159 1   
   160  148  160 1   
   161  148  161 1   
   162  162  163 1   
   163  162  171 1   
   164  163  164 1   
   165  163  166 1   
   166  163  172 1   
   167  164  165 2   
   168  164  177 1   
   169  166  167 1   
   170  166  173 1   
   171  166  174 1   
   172  167  168 1   
   173  167  175 1   
   174  167  176 1   
   175  168  169 1   
   176  168  170 1   
   177  177  178 1   
   178  177  182 1   
   179  178  179 1   
   180  178  180 1   
   181  178  181 1   
   182  184  185 1   
   183  184  186 1   
@<TRIPOS>SUBSTRUCTURE
     1 MOL         1 TEMP              0 ****  ****    0 ROOT
