@<TRIPOS>MOLECULE
MOL
  175   173     1     0     0
SMALL
resp


@<TRIPOS>ATOM
      1 C1          0.8490    4.1570    5.4740 c3        1 MOL     -0.440620
      2 C2          0.3210    4.1350    4.0370 c         1 MOL      0.708147
      3 O1          1.1230    4.2330    3.0990 o         1 MOL     -0.530780
      4 H1          1.1910    5.1630    5.7190 hc        1 MOL      0.107644
      5 H2          0.0520    3.8680    6.1590 hc        1 MOL      0.107644
      6 H3          1.6800    3.4580    5.5670 hc        1 MOL      0.107644
      7 N1         -1.0130    3.8490    3.9450 n         1 MOL     -0.621794
      8 C3         -1.7300    3.6500    2.5990 c3        1 MOL      0.044679
      9 C4         -1.6000    4.8160    1.7070 c         1 MOL      0.556247
     10 O2         -1.5770    6.0010    2.0910 o         1 MOL     -0.582580
     11 C5         -3.1610    3.3510    2.8760 c3        1 MOL     -0.143442
     12 C6         -3.9880    2.9590    1.7140 c         1 MOL      0.612611
     13 O3         -5.1810    3.1630    1.6740 o         1 MOL     -0.612801
     14 O4         -3.4500    2.2310    0.7630 o         1 MOL     -0.612801
     15 H4         -1.6110    3.6850    4.7430 hn        1 MOL      0.326947
     16 H5         -1.2590    2.7710    2.1550 h1        1 MOL      0.075110
     17 H6         -3.6990    4.1060    3.4400 hc        1 MOL      0.041738
     18 H7         -3.2560    2.4720    3.5220 hc        1 MOL      0.041738
     19 N2         -1.5920    4.5170    0.4420 n         1 MOL     -0.385015
     20 C7         -1.7290    5.4630   -0.6850 c3        1 MOL      0.248320
     21 C8         -2.8390    5.1630   -1.6800 c         1 MOL      0.420016
     22 O5         -3.0390    6.0390   -2.5250 o         1 MOL     -0.569636
     23 C9         -0.3970    5.6280   -1.4410 c3        1 MOL     -0.236126
     24 H8         -1.4070    3.5780    0.1020 hn        1 MOL      0.271631
     25 H9         -2.0500    6.3780   -0.1860 h1        1 MOL      0.023278
     26 H10         0.2510    6.0760   -0.6970 hc        1 MOL      0.059671
     27 H11        -0.0190    4.6640   -1.7690 hc        1 MOL      0.059671
     28 H12        -0.3590    6.4360   -2.1820 hc        1 MOL      0.059671
     29 N3         -3.5150    3.9690   -1.5850 n         1 MOL     -0.254577
     30 C10        -4.3730    3.5370   -2.6410 c3        1 MOL      0.009691
     31 C11        -5.6810    2.7830   -2.2730 c         1 MOL      0.295493
     32 O6         -6.5570    2.4300   -3.1290 o         1 MOL     -0.545706
     33 C12        -3.6430    2.7130   -3.6610 c3        1 MOL     -0.001492
     34 C13        -3.2360    1.3110   -3.2740 c         1 MOL      0.603665
     35 O7         -2.9340    0.6010   -4.2620 o         1 MOL     -0.671961
     36 O8         -3.2730    0.8860   -2.1110 o         1 MOL     -0.671961
     37 H13        -3.3890    3.3990   -0.7620 hn        1 MOL      0.110250
     38 H14        -4.7440    4.4580   -3.1070 h1        1 MOL      0.082394
     39 H15        -2.7800    3.2280   -4.0870 hc        1 MOL      0.014867
     40 H16        -4.2580    2.7290   -4.5600 hc        1 MOL      0.014867
     41 N4         -5.8730    2.4070   -1.0350 n         1 MOL     -0.073063
     42 C14        -6.9780    1.5960   -0.5600 c3        1 MOL     -0.220299
     43 C15        -7.0550    0.2100   -1.1090 c         1 MOL      0.489328
     44 O9         -8.1480   -0.3450   -1.1220 o         1 MOL     -0.610273
     45 H17        -5.2050    2.6660   -0.3230 hn        1 MOL      0.125655
     46 H18        -7.9080    2.1200   -0.7680 h1        1 MOL      0.107726
     47 H19        -6.9020    1.5490    0.5240 h1        1 MOL      0.107726
     48 N5         -6.0080   -0.4160   -1.6680 n         1 MOL     -0.169339
     49 C16        -5.9740   -1.6930   -2.2830 c3        1 MOL     -0.053753
     50 C17        -6.2500   -2.8500   -1.3270 c         1 MOL      0.452967
     51 O10        -6.3950   -4.0170   -1.7730 o         1 MOL     -0.559541
     52 C18        -4.8100   -1.9630   -3.2030 c3        1 MOL     -0.016377
     53 C19        -3.5430   -2.3370   -2.4660 c         1 MOL      0.464632
     54 N6         -2.6080   -2.9260   -3.2150 n         1 MOL     -0.673998
     55 O11        -3.4060   -2.0460   -1.2510 o         1 MOL     -0.416673
     56 H20        -5.1540    0.1020   -1.8040 hn        1 MOL      0.280314
     57 H21        -6.8340   -1.8450   -2.9340 h1        1 MOL      0.091667
     58 H22        -4.7120   -1.0750   -3.8220 hc        1 MOL      0.018683
     59 H23        -5.1730   -2.7680   -3.8450 hc        1 MOL      0.018683
     60 H24        -2.8240   -3.0410   -4.1970 hn        1 MOL      0.337425
     61 H25        -1.6290   -2.8100   -3.0200 hn        1 MOL      0.337425
     62 N7         -6.4400   -2.6620   -0.0240 n         1 MOL     -0.264557
     63 C20        -6.7610   -3.6860    1.0200 c3        1 MOL     -0.107790
     64 C21        -5.5460   -4.3210    1.6660 c         1 MOL      0.435472
     65 O12        -5.6300   -5.2440    2.4660 o         1 MOL     -0.556417
     66 H26        -6.2270   -1.7000    0.1970 hn        1 MOL      0.207132
     67 H27        -7.3910   -4.4910    0.6230 h1        1 MOL      0.101136
     68 H28        -7.3940   -3.1910    1.7670 h1        1 MOL      0.101136
     69 N8         -4.3400   -3.7990    1.3570 n         1 MOL     -0.113958
     70 C22        -3.0420   -4.3780    1.6890 c3        1 MOL     -0.167070
     71 C23        -1.9340   -3.3020    1.7760 c         1 MOL      0.513397
     72 O13        -2.1120   -2.2070    1.2420 o         1 MOL     -0.497941
     73 C24        -2.5780   -5.4720    0.7710 c3        1 MOL      0.459772
     74 C25        -3.4000   -6.8100    0.7730 c3        1 MOL     -0.560608
     75 O14        -2.6400   -5.1140   -0.6120 oh        1 MOL     -0.561866
     76 H29        -4.3510   -2.9490    0.8090 hn        1 MOL      0.092933
     77 H30        -3.0340   -4.8050    2.6920 h1        1 MOL      0.079644
     78 H31        -1.5260   -5.6840    0.9530 h1        1 MOL     -0.020375
     79 H32        -2.1360   -4.2960   -0.6750 ho        1 MOL      0.357375
     80 H33        -3.0290   -7.5780    0.0860 hc        1 MOL      0.145312
     81 H34        -3.4980   -7.1600    1.8060 hc        1 MOL      0.145312
     82 H35        -4.4680   -6.6480    0.6700 hc        1 MOL      0.145312
     83 N9         -0.7660   -3.6250    2.3450 n         1 MOL     -0.563878
     84 C26         0.4390   -2.7960    2.2340 c3        1 MOL      0.001585
     85 C27         1.0420   -3.0650    0.7830 c         1 MOL      0.612693
     86 O15         0.9240   -4.1780    0.3300 o         1 MOL     -0.538608
     87 C28         1.5050   -3.0130    3.3430 c3        1 MOL      0.203697
     88 C29         0.9580   -2.6030    4.7140 c3        1 MOL     -0.018692
     89 C30         2.8190   -2.1820    3.1070 c3        1 MOL     -0.254853
     90 C31         1.9110   -2.8200    5.8470 c3        1 MOL     -0.145765
     91 H36        -0.7060   -4.4810    2.8700 hn        1 MOL      0.319062
     92 H37         0.2990   -1.7190    2.3090 h1        1 MOL      0.000579
     93 H38         1.6310   -4.0950    3.3520 hc        1 MOL     -0.020429
     94 H39         0.1460   -3.2420    5.0520 hc        1 MOL      0.017339
     95 H40         0.6900   -1.5500    4.6850 hc        1 MOL      0.017339
     96 H41         3.2590   -2.6490    2.2340 hc        1 MOL      0.049967
     97 H42         2.6300   -1.1190    2.9640 hc        1 MOL      0.049967
     98 H43         3.5740   -2.3190    3.8830 hc        1 MOL      0.049967
     99 H44         1.3350   -2.7760    6.7710 hc        1 MOL      0.030149
    100 H45         2.4760   -3.7500    5.7410 hc        1 MOL      0.030149
    101 H46         2.6860   -2.0550    5.8330 hc        1 MOL      0.030149
    102 N10         1.7630   -2.0840    0.2840 n         1 MOL     -0.528947
    103 C32         2.4080   -2.1330   -1.0100 c3        1 MOL      0.233169
    104 C33         3.9540   -1.8390   -0.8270 c         1 MOL      0.524620
    105 O16         4.3190   -1.3230    0.2270 o         1 MOL     -0.413814
    106 C34         1.6680   -1.2250   -1.9370 c3        1 MOL     -0.304693
    107 C35         0.3070   -1.6340   -2.0900 c         1 MOL      0.814821
    108 O17         0.0430   -2.5340   -2.9310 o         1 MOL     -0.677894
    109 O18        -0.5520   -1.0330   -1.4130 o         1 MOL     -0.677894
    110 H47         1.9250   -1.2470    0.8190 hn        1 MOL      0.272864
    111 H48         2.3210   -3.1240   -1.4450 h1        1 MOL      0.023645
    112 H49         2.1760   -1.3320   -2.8930 hc        1 MOL      0.052092
    113 H50         1.7650   -0.1790   -1.6390 hc        1 MOL      0.052092
    114 N11         4.8360   -2.0620   -1.8050 n         1 MOL     -0.755315
    115 C36         6.2800   -1.7410   -1.5410 c3        1 MOL      0.432155
    116 C37         6.5710   -0.2750   -1.1670 c         1 MOL      0.199798
    117 O19         7.3670   -0.1330   -0.2590 o         1 MOL     -0.447674
    118 C38         7.2200   -2.1520   -2.7180 c3        1 MOL     -0.200900
    119 C39         8.7030   -2.0680   -2.3520 ca        1 MOL     -0.058957
    120 C40         9.5230   -1.0760   -3.0560 ca        1 MOL     -0.045415
    121 C41         9.2950   -2.7790   -1.2640 ca        1 MOL     -0.045415
    122 C42        10.8900   -0.9660   -2.7670 ca        1 MOL     -0.213829
    123 C43        10.5960   -2.5820   -0.8940 ca        1 MOL     -0.213829
    124 C44        11.3860   -1.5940   -1.5790 ca        1 MOL      0.001780
    125 H51         4.6310   -2.6340   -2.6070 hn        1 MOL      0.369503
    126 H52         6.6460   -2.2610   -0.6550 h1        1 MOL      0.034771
    127 H53         7.0250   -1.5610   -3.6120 hc        1 MOL      0.070676
    128 H54         7.0440   -3.1950   -2.9740 hc        1 MOL      0.070676
    129 H55         9.2080   -0.4940   -3.9120 ha        1 MOL      0.103272
    130 H56         8.7220   -3.4990   -0.7000 ha        1 MOL      0.103272
    131 H57        11.4430   -0.2920   -3.4020 ha        1 MOL      0.132879
    132 H58        11.0850   -3.2240   -0.1820 ha        1 MOL      0.132879
    133 H59        12.4440   -1.4430   -1.4350 ha        1 MOL      0.069003
    134 N12         5.9830    0.7710   -1.8160 n         1 MOL     -0.046935
    135 C45         6.3820    2.1570   -1.4990 c3        1 MOL      0.006017
    136 C46         5.8550    2.6150   -0.1080 c         1 MOL      0.288968
    137 O20         6.2540    3.6460    0.3770 o         1 MOL     -0.464471
    138 C47         5.9590    2.9870   -2.6620 c3        1 MOL     -0.170634
    139 C48         5.5210    1.9980   -3.6930 c3        1 MOL      0.050710
    140 C49         5.0310    0.7640   -2.9460 c3        1 MOL     -0.055908
    141 H60         7.4610    2.2610   -1.4790 h1        1 MOL      0.095604
    142 H61         5.1600    3.6970   -2.4540 hc        1 MOL      0.075003
    143 H62         6.8300    3.5080   -3.0530 hc        1 MOL      0.075003
    144 H63         4.7510    2.3910   -4.3480 hc        1 MOL      0.006017
    145 H64         6.3010    1.6580   -4.3700 hc        1 MOL      0.006017
    146 H65         4.0140    0.8530   -2.5640 h1        1 MOL      0.071377
    147 H66         5.0770   -0.0010   -3.7070 h1        1 MOL      0.071377
    148 N13         4.8470    1.8130    0.4340 n         1 MOL     -0.052043
    149 C50         4.0820    2.0080    1.6660 c3        1 MOL     -0.020953
    150 C51         4.8030    1.3570    2.8210 c         1 MOL      0.424581
    151 O21         5.0400    2.0240    3.8480 o         1 MOL     -0.554921
    152 C52         2.6690    1.4770    1.5220 c3        1 MOL     -0.138812
    153 C53         1.9080    2.1290    0.4210 c3        1 MOL      0.032754
    154 C54         0.4180    1.6700    0.3080 c         1 MOL      0.452081
    155 O22        -0.3970    2.0340   -0.5990 o         1 MOL     -0.633758
    156 O23         0.0260    0.8220    1.1310 o         1 MOL     -0.633758
    157 H67         4.5840    1.0040   -0.0990 hn        1 MOL      0.116382
    158 H68         4.0260    3.0780    1.8990 h1        1 MOL      0.099750
    159 H69         2.1430    1.6080    2.4750 hc        1 MOL      0.085545
    160 H70         2.6860    0.4070    1.3280 hc        1 MOL      0.085545
    161 H71         2.4180    1.9720   -0.5320 hc        1 MOL      0.016363
    162 H72         1.8910    3.2110    0.5430 hc        1 MOL      0.016363
    163 N14         5.3300    0.1450    2.6050 n         1 MOL     -0.115622
    164 C55         6.3640   -0.5080    3.4050 c3        1 MOL     -0.097412
    165 H73         7.2600   -0.6430    2.8000 h1        1 MOL      0.056140
    166 H74         6.5990    0.1110    4.2700 h1        1 MOL      0.056140
    167 H75         6.0030   -1.4810    3.7400 h1        1 MOL      0.056140
    168 H76         5.1410   -0.1990    1.6720 hn        1 MOL      0.105416
    169 Ca1        -2.1640    0.0660    0.0420 Ca        1 MOL      1.594988
    170 O24        -1.8240    0.3090    2.9850 oh        1 MOL     -0.760922
    171 H77        -0.9250    0.5400    2.7330 ho        1 MOL      0.372094
    172 H78        -1.9140    0.6280    3.8780 ho        1 MOL      0.372094
    173 O25        -4.7510   -0.2960    1.0500 oh        1 MOL     -0.760922
    174 H79        -4.8820    0.6460    1.1750 ho        1 MOL      0.372094
    175 H80        -5.1420   -0.6960    1.8220 ho        1 MOL      0.372094
@<TRIPOS>BOND
     1    1    2 1   
     2    1    4 1   
     3    1    5 1   
     4    1    6 1   
     5    2    3 2   
     6    2    7 1   
     7    7    8 1   
     8    7   15 1   
     9    8    9 1   
    10    8   11 1   
    11    8   16 1   
    12    9   10 2   
    13    9   19 1   
    14   11   12 1   
    15   11   17 1   
    16   11   18 1   
    17   12   13 1   
    18   12   14 1   
    19   19   20 1   
    20   19   24 1   
    21   20   21 1   
    22   20   23 1   
    23   20   25 1   
    24   21   22 2   
    25   21   29 1   
    26   23   26 1   
    27   23   27 1   
    28   23   28 1   
    29   29   30 1   
    30   29   37 1   
    31   30   31 1   
    32   30   33 1   
    33   30   38 1   
    34   31   32 2   
    35   31   41 1   
    36   33   34 1   
    37   33   39 1   
    38   33   40 1   
    39   34   35 1   
    40   34   36 1   
    41   41   42 1   
    42   41   45 1   
    43   42   43 1   
    44   42   46 1   
    45   42   47 1   
    46   43   44 2   
    47   43   48 1   
    48   48   49 1   
    49   48   56 1   
    50   49   50 1   
    51   49   52 1   
    52   49   57 1   
    53   50   51 2   
    54   50   62 1   
    55   52   53 1   
    56   52   58 1   
    57   52   59 1   
    58   53   54 1   
    59   53   55 2   
    60   54   60 1   
    61   54   61 1   
    62   62   63 1   
    63   62   66 1   
    64   63   64 1   
    65   63   67 1   
    66   63   68 1   
    67   64   65 2   
    68   64   69 1   
    69   69   70 1   
    70   69   76 1   
    71   70   71 1   
    72   70   73 1   
    73   70   77 1   
    74   71   72 2   
    75   71   83 1   
    76   73   74 1   
    77   73   75 1   
    78   73   78 1   
    79   74   80 1   
    80   74   81 1   
    81   74   82 1   
    82   75   79 1   
    83   83   84 1   
    84   83   91 1   
    85   84   85 1   
    86   84   87 1   
    87   84   92 1   
    88   85   86 2   
    89   85  102 1   
    90   87   88 1   
    91   87   89 1   
    92   87   93 1   
    93   88   90 1   
    94   88   94 1   
    95   88   95 1   
    96   89   96 1   
    97   89   97 1   
    98   89   98 1   
    99   90   99 1   
   100   90  100 1   
   101   90  101 1   
   102  102  103 1   
   103  102  110 1   
   104  103  104 1   
   105  103  106 1   
   106  103  111 1   
   107  104  105 2   
   108  104  114 1   
   109  106  107 1   
   110  106  112 1   
   111  106  113 1   
   112  107  108 1   
   113  107  109 1   
   114  114  115 1   
   115  114  125 1   
   116  115  116 1   
   117  115  118 1   
   118  115  126 1   
   119  116  117 2   
   120  116  134 1   
   121  118  119 1   
   122  118  127 1   
   123  118  128 1   
   124  119  120 ar  
   125  119  121 ar  
   126  120  122 ar  
   127  120  129 1   
   128  121  123 ar  
   129  121  130 1   
   130  122  124 ar  
   131  122  131 1   
   132  123  124 ar  
   133  123  132 1   
   134  124  133 1   
   135  134  135 1   
   136  134  140 1   
   137  135  136 1   
   138  135  138 1   
   139  135  141 1   
   140  136  137 2   
   141  136  148 1   
   142  138  139 1   
   143  138  142 1   
   144  138  143 1   
   145  139  140 1   
   146  139  144 1   
   147  139  145 1   
   148  140  146 1   
   149  140  147 1   
   150  148  149 1   
   151  148  157 1   
   152  149  150 1   
   153  149  152 1   
   154  149  158 1   
   155  150  151 2   
   156  150  163 1   
   157  152  153 1   
   158  152  159 1   
   159  152  160 1   
   160  153  154 1   
   161  153  161 1   
   162  153  162 1   
   163  154  155 1   
   164  154  156 1   
   165  163  164 1   
   166  163  168 1   
   167  164  165 1   
   168  164  166 1   
   169  164  167 1   
   170  170  171 1   
   171  170  172 1   
   172  173  174 1   
   173  173  175 1   
@<TRIPOS>SUBSTRUCTURE
     1 MOL         1 TEMP              0 ****  ****    0 ROOT
