@<TRIPOS>MOLECULE
MOL
  175   173     1     0     0
SMALL
resp


@<TRIPOS>ATOM
      1 C1         -0.5440   -4.0390    5.5140 c3        1 MOL     -0.377991
      2 C2          0.0240   -3.8420    4.1190 c         1 MOL      0.793044
      3 O1         -0.6320   -3.7910    3.1410 o         1 MOL     -0.565617
      4 H1          0.0660   -3.4940    6.2340 hc        1 MOL      0.086140
      5 H2         -1.5660   -3.6630    5.5470 hc        1 MOL      0.086140
      6 H3         -0.5380   -5.1000    5.7630 hc        1 MOL      0.086140
      7 N1          1.3410   -3.7690    4.0090 n         1 MOL     -0.690485
      8 C3          1.9960   -3.3650    2.7010 c3        1 MOL      0.059113
      9 C4          2.1800   -4.5500    1.7110 c         1 MOL      0.719878
     10 O2          2.5600   -5.6390    2.1650 o         1 MOL     -0.604601
     11 C5          3.4250   -2.8560    3.1450 c3        1 MOL     -0.305213
     12 C6          4.2070   -2.3140    1.9310 c         1 MOL      0.670624
     13 O3          5.4490   -2.4150    1.9660 o         1 MOL     -0.652408
     14 O4          3.5280   -1.9190    0.9650 o         1 MOL     -0.652408
     15 H4          1.9970   -3.8940    4.7640 hn        1 MOL      0.333997
     16 H5          1.3740   -2.5980    2.2470 h1        1 MOL      0.154012
     17 H6          3.9590   -3.7270    3.5060 hc        1 MOL      0.073239
     18 H7          3.3640   -2.2070    4.0170 hc        1 MOL      0.073239
     19 N2          1.9560   -4.3800    0.3960 n         1 MOL     -0.736954
     20 C7          2.4080   -5.3910   -0.5580 c3        1 MOL      0.593399
     21 C8          3.4770   -4.9330   -1.6050 c         1 MOL      0.311101
     22 O5          3.6510   -5.6760   -2.5700 o         1 MOL     -0.540401
     23 C9          1.1570   -5.9410   -1.2450 c3        1 MOL     -0.270360
     24 H8          1.5400   -3.5340    0.0340 hn        1 MOL      0.345137
     25 H9          2.8470   -6.2410   -0.0260 h1        1 MOL     -0.051616
     26 H10         1.3840   -6.7670   -1.9120 hc        1 MOL      0.051343
     27 H11         0.5960   -6.4350   -0.4590 hc        1 MOL      0.051343
     28 H12         0.6830   -5.1110   -1.7670 hc        1 MOL      0.051343
     29 N3          4.1770   -3.7570   -1.4980 n         1 MOL     -0.259666
     30 C10         5.1260   -3.4140   -2.5180 c3        1 MOL     -0.062868
     31 C11         6.3060   -2.5260   -2.1410 c         1 MOL      0.451847
     32 O6          7.1180   -2.2880   -3.0350 o         1 MOL     -0.550469
     33 C12         4.3040   -2.6810   -3.6340 c3        1 MOL     -0.040449
     34 C13         3.4930   -1.4930   -3.0430 c         1 MOL      0.765032
     35 O7          2.4270   -1.2170   -3.6030 o         1 MOL     -0.725862
     36 O8          3.7550   -0.9330   -1.9550 o         1 MOL     -0.725862
     37 H13         4.0690   -3.1670   -0.6880 hn        1 MOL      0.151584
     38 H14         5.5700   -4.2850   -2.9880 h1        1 MOL      0.104303
     39 H15         3.6850   -3.4180   -4.1570 hc        1 MOL      0.013079
     40 H16         4.8870   -2.1860   -4.4190 hc        1 MOL      0.013079
     41 N4          6.5580   -2.2180   -0.9010 n         1 MOL     -0.267076
     42 C14         7.6440   -1.3230   -0.6030 c3        1 MOL     -0.260247
     43 C15         7.5740    0.1930   -1.0530 c         1 MOL      0.476775
     44 O9          8.5800    0.8900   -1.0020 o         1 MOL     -0.574716
     45 H17         5.9080   -2.5310   -0.1890 hn        1 MOL      0.251673
     46 H18         8.6350   -1.6000   -0.9540 h1        1 MOL      0.130434
     47 H19         7.6840   -1.4060    0.4750 h1        1 MOL      0.130434
     48 N5          6.3800    0.6700   -1.5360 n         1 MOL     -0.189537
     49 C16         6.2090    2.0430   -2.1210 c3        1 MOL      0.018018
     50 C17         6.1770    3.1600   -0.9840 c         1 MOL      0.446394
     51 O10         6.1110    4.3200   -1.3660 o         1 MOL     -0.545860
     52 C18         5.0420    2.1030   -3.0980 c3        1 MOL     -0.147237
     53 C19         3.6920    2.1360   -2.5740 c         1 MOL      0.638830
     54 N6          2.7120    2.4680   -3.3530 n         1 MOL     -0.660627
     55 O11         3.4390    2.0790   -1.3850 o         1 MOL     -0.587686
     56 H20         5.6120    0.0180   -1.5860 hn        1 MOL      0.150477
     57 H21         7.0900    2.4110   -2.6410 h1        1 MOL      0.089436
     58 H22         5.1100    1.3160   -3.8440 hc        1 MOL      0.047905
     59 H23         5.0510    3.0360   -3.6680 hc        1 MOL      0.047905
     60 H24         2.8660    2.2670   -4.3400 hn        1 MOL      0.330750
     61 H25         1.8430    2.3040   -2.8760 hn        1 MOL      0.330750
     62 N7          6.2430    2.8440    0.2860 n         1 MOL     -0.178250
     63 C20         6.2960    3.8710    1.4110 c3        1 MOL     -0.266195
     64 C21         4.9200    4.5630    1.7460 c         1 MOL      0.487565
     65 O12         4.8860    5.5540    2.4980 o         1 MOL     -0.544320
     66 H26         6.3330    1.8850    0.5750 hn        1 MOL      0.204603
     67 H27         6.9910    4.6980    1.2270 h1        1 MOL      0.129089
     68 H28         6.6520    3.3200    2.2720 h1        1 MOL      0.129089
     69 N8          3.8120    4.1040    1.1420 n         1 MOL     -0.165236
     70 C22         2.4540    4.5440    1.3780 c3        1 MOL     -0.207680
     71 C23         1.3850    3.4860    1.4650 c         1 MOL      0.502913
     72 O13         1.5140    2.4910    0.7220 o         1 MOL     -0.567990
     73 C24         1.9860    5.6020    0.3330 c3        1 MOL      0.525446
     74 C25         2.8940    6.8210    0.3020 c3        1 MOL     -0.617021
     75 O14         2.0770    4.9930   -0.8870 oh        1 MOL     -0.572587
     76 H29         3.9550    3.3440    0.4960 hn        1 MOL      0.244597
     77 H30         2.2900    5.1930    2.2400 h1        1 MOL      0.055613
     78 H31         0.9260    5.8470    0.4730 h1        1 MOL      0.004549
     79 H32         2.8950    4.5000   -0.8050 ho        1 MOL      0.338197
     80 H33         2.3640    7.5300   -0.3340 hc        1 MOL      0.148727
     81 H34         2.9900    7.2910    1.2880 hc        1 MOL      0.148727
     82 H35         3.8760    6.6220   -0.1260 hc        1 MOL      0.148727
     83 N9          0.2960    3.7650    2.1270 n         1 MOL     -0.457757
     84 C26        -0.8820    2.8210    2.0970 c3        1 MOL     -0.196395
     85 C27        -1.6850    3.1190    0.8780 c         1 MOL      0.867836
     86 O15        -2.2310    4.2060    0.7640 o         1 MOL     -0.660457
     87 C28        -1.6540    2.9480    3.4040 c3        1 MOL      0.155826
     88 C29        -0.7800    2.5880    4.6010 c3        1 MOL      0.334901
     89 C30        -2.8490    1.9950    3.3740 c3        1 MOL     -0.311218
     90 C31        -1.4770    2.6400    5.9950 c3        1 MOL     -0.355160
     91 H36         0.1850    4.6780    2.5370 hn        1 MOL      0.298279
     92 H37        -0.5050    1.7920    2.1330 h1        1 MOL      0.117953
     93 H38        -1.9860    3.9740    3.5580 hc        1 MOL     -0.014157
     94 H39         0.0040    3.3340    4.5540 hc        1 MOL     -0.087903
     95 H40        -0.2860    1.6170    4.5080 hc        1 MOL     -0.087903
     96 H41        -3.5360    2.0250    4.2170 hc        1 MOL      0.065072
     97 H42        -3.5180    2.1040    2.5180 hc        1 MOL      0.065072
     98 H43        -2.4380    0.9870    3.3300 hc        1 MOL      0.065072
     99 H44        -0.6760    2.7250    6.7260 hc        1 MOL      0.072134
    100 H45        -2.1410    3.5070    5.9440 hc        1 MOL      0.072134
    101 H46        -2.0790    1.7340    5.9860 hc        1 MOL      0.072134
    102 N10        -1.8540    2.0840    0.0740 n         1 MOL     -0.591281
    103 C32        -2.6800    2.0360   -1.1670 c3        1 MOL      0.259819
    104 C33        -4.1470    1.6490   -0.7370 c         1 MOL      0.286384
    105 O16        -4.3260    0.9630    0.2410 o         1 MOL     -0.289431
    106 C34        -2.0560    1.0670   -2.1610 c3        1 MOL     -0.289671
    107 C35        -0.6120    1.3740   -2.6430 c         1 MOL      0.718348
    108 O17        -0.4600    1.8100   -3.7990 o         1 MOL     -0.662087
    109 O18         0.3280    1.1340   -1.8720 o         1 MOL     -0.662087
    110 H47        -1.3750    1.2320    0.3150 hn        1 MOL      0.303134
    111 H48        -2.6650    3.0160   -1.6350 h1        1 MOL      0.034559
    112 H49        -2.7680    1.0700   -2.9800 hc        1 MOL      0.060302
    113 H50        -2.0430    0.1350   -1.5910 hc        1 MOL      0.060302
    114 N11        -5.1240    1.8370   -1.6000 n         1 MOL     -0.568115
    115 C36        -6.5430    1.4090   -1.2120 c3        1 MOL      0.463742
    116 C37        -6.7340   -0.0830   -1.1010 c         1 MOL      0.385900
    117 O19        -7.2850   -0.4210   -0.0400 o         1 MOL     -0.522151
    118 C38        -7.3930    2.1470   -2.2570 c3        1 MOL     -0.280456
    119 C39        -8.9320    2.0390   -2.1080 ca        1 MOL      0.135300
    120 C40        -9.7580    1.2300   -2.9640 ca        1 MOL     -0.217219
    121 C41        -9.4420    2.4560   -0.8930 ca        1 MOL     -0.217219
    122 C42       -11.0770    0.9280   -2.5720 ca        1 MOL     -0.067860
    123 C43       -10.7280    2.1160   -0.5220 ca        1 MOL     -0.067860
    124 C44       -11.5840    1.3820   -1.3650 ca        1 MOL     -0.131198
    125 H51        -4.9800    2.5960   -2.2460 hn        1 MOL      0.297240
    126 H52        -6.7290    1.7870   -0.2090 h1        1 MOL      0.024609
    127 H53        -7.1280    1.6260   -3.1750 hc        1 MOL      0.067906
    128 H54        -7.2070    3.2170   -2.2020 hc        1 MOL      0.067906
    129 H55        -9.4050    0.9000   -3.9360 ha        1 MOL      0.132421
    130 H56        -8.8570    2.9820   -0.1560 ha        1 MOL      0.132421
    131 H57       -11.6820    0.2710   -3.1830 ha        1 MOL      0.096524
    132 H58       -11.1580    2.5430    0.3730 ha        1 MOL      0.096524
    133 H59       -12.6110    1.2370   -1.0680 ha        1 MOL      0.103850
    134 N12        -6.1130   -0.9710   -1.8810 n         1 MOL     -0.134790
    135 C45        -6.3460   -2.4320   -1.6780 c3        1 MOL     -0.024500
    136 C46        -5.7400   -2.9710   -0.4060 c         1 MOL      0.301517
    137 O20        -6.2440   -3.9430    0.1330 o         1 MOL     -0.487572
    138 C47        -5.7440   -3.0480   -2.9600 c3        1 MOL     -0.019535
    139 C48        -5.8000   -1.9070   -3.9730 c3        1 MOL     -0.017951
    140 C49        -5.3670   -0.7710   -3.0660 c3        1 MOL     -0.074482
    141 H60        -7.4230   -2.5610   -1.6710 h1        1 MOL      0.099171
    142 H61        -4.7570   -3.5130   -2.9170 hc        1 MOL      0.044247
    143 H62        -6.4030   -3.8870   -3.1870 hc        1 MOL      0.044247
    144 H63        -5.2350   -2.0850   -4.8800 hc        1 MOL      0.011362
    145 H64        -6.8550   -1.6840   -4.1340 hc        1 MOL      0.011362
    146 H65        -4.2910   -0.8680   -2.8910 h1        1 MOL      0.079363
    147 H66        -5.5650    0.1800   -3.5550 h1        1 MOL      0.079363
    148 N13        -4.7680   -2.2070    0.1180 n         1 MOL     -0.042742
    149 C50        -4.1140   -2.3850    1.4110 c3        1 MOL     -0.270157
    150 C51        -5.0170   -1.9030    2.6290 c         1 MOL      0.460599
    151 O21        -5.1270   -2.5530    3.6890 o         1 MOL     -0.539458
    152 C52        -2.6260   -1.8070    1.4680 c3        1 MOL      0.018993
    153 C53        -1.6740   -2.4620    0.4350 c3        1 MOL      0.002817
    154 C54        -0.3590   -1.6540    0.3090 c         1 MOL      0.531599
    155 O22         0.5690   -2.0930   -0.3870 o         1 MOL     -0.647706
    156 O23        -0.2480   -0.5250    0.7660 o         1 MOL     -0.647706
    157 H67        -4.4550   -1.4240   -0.4380 hn        1 MOL      0.133440
    158 H68        -4.0800   -3.4650    1.5960 h1        1 MOL      0.144579
    159 H69        -2.2020   -1.8750    2.4660 hc        1 MOL      0.015451
    160 H70        -2.6600   -0.7470    1.2230 hc        1 MOL      0.015451
    161 H71        -2.1610   -2.4650   -0.5350 hc        1 MOL      0.024271
    162 H72        -1.5160   -3.4990    0.7410 hc        1 MOL      0.024271
    163 N14        -5.7530   -0.7820    2.3770 n         1 MOL      0.012510
    164 C55        -6.5600   -0.1590    3.3990 c3        1 MOL     -0.259810
    165 H73        -5.9700   -0.0460    4.3080 h1        1 MOL      0.086372
    166 H74        -6.8900    0.8210    3.0560 h1        1 MOL      0.086372
    167 H75        -7.4300   -0.7830    3.6070 h1        1 MOL      0.086372
    168 H76        -5.6300   -0.3030    1.4920 hn        1 MOL      0.036021
    169 Ca1         2.0660    0.0070   -0.2600 Ca        1 MOL      1.681979
    170 O24         1.7210   -0.2660    2.7130 oh        1 MOL     -0.797833
    171 H77         1.9510   -0.3740    3.6390 ho        1 MOL      0.381011
    172 H78         0.7730   -0.1140    2.7190 ho        1 MOL      0.381011
    173 O25         4.2350    0.6540    1.3980 oh        1 MOL     -0.797833
    174 H79         4.5690   -0.2410    1.4880 ho        1 MOL      0.381011
    175 H80         4.4630    1.0770    2.2320 ho        1 MOL      0.381011
@<TRIPOS>BOND
     1    1    2 1   
     2    1    4 1   
     3    1    5 1   
     4    1    6 1   
     5    2    3 2   
     6    2    7 1   
     7    7    8 1   
     8    7   15 1   
     9    8    9 1   
    10    8   11 1   
    11    8   16 1   
    12    9   10 2   
    13    9   19 1   
    14   11   12 1   
    15   11   17 1   
    16   11   18 1   
    17   12   13 1   
    18   12   14 1   
    19   19   20 1   
    20   19   24 1   
    21   20   21 1   
    22   20   23 1   
    23   20   25 1   
    24   21   22 2   
    25   21   29 1   
    26   23   26 1   
    27   23   27 1   
    28   23   28 1   
    29   29   30 1   
    30   29   37 1   
    31   30   31 1   
    32   30   33 1   
    33   30   38 1   
    34   31   32 2   
    35   31   41 1   
    36   33   34 1   
    37   33   39 1   
    38   33   40 1   
    39   34   35 1   
    40   34   36 1   
    41   41   42 1   
    42   41   45 1   
    43   42   43 1   
    44   42   46 1   
    45   42   47 1   
    46   43   44 2   
    47   43   48 1   
    48   48   49 1   
    49   48   56 1   
    50   49   50 1   
    51   49   52 1   
    52   49   57 1   
    53   50   51 2   
    54   50   62 1   
    55   52   53 1   
    56   52   58 1   
    57   52   59 1   
    58   53   54 1   
    59   53   55 2   
    60   54   60 1   
    61   54   61 1   
    62   62   63 1   
    63   62   66 1   
    64   63   64 1   
    65   63   67 1   
    66   63   68 1   
    67   64   65 2   
    68   64   69 1   
    69   69   70 1   
    70   69   76 1   
    71   70   71 1   
    72   70   73 1   
    73   70   77 1   
    74   71   72 2   
    75   71   83 1   
    76   73   74 1   
    77   73   75 1   
    78   73   78 1   
    79   74   80 1   
    80   74   81 1   
    81   74   82 1   
    82   75   79 1   
    83   83   84 1   
    84   83   91 1   
    85   84   85 1   
    86   84   87 1   
    87   84   92 1   
    88   85   86 2   
    89   85  102 1   
    90   87   88 1   
    91   87   89 1   
    92   87   93 1   
    93   88   90 1   
    94   88   94 1   
    95   88   95 1   
    96   89   96 1   
    97   89   97 1   
    98   89   98 1   
    99   90   99 1   
   100   90  100 1   
   101   90  101 1   
   102  102  103 1   
   103  102  110 1   
   104  103  104 1   
   105  103  106 1   
   106  103  111 1   
   107  104  105 2   
   108  104  114 1   
   109  106  107 1   
   110  106  112 1   
   111  106  113 1   
   112  107  108 1   
   113  107  109 1   
   114  114  115 1   
   115  114  125 1   
   116  115  116 1   
   117  115  118 1   
   118  115  126 1   
   119  116  117 2   
   120  116  134 1   
   121  118  119 1   
   122  118  127 1   
   123  118  128 1   
   124  119  120 ar  
   125  119  121 ar  
   126  120  122 ar  
   127  120  129 1   
   128  121  123 ar  
   129  121  130 1   
   130  122  124 ar  
   131  122  131 1   
   132  123  124 ar  
   133  123  132 1   
   134  124  133 1   
   135  134  135 1   
   136  134  140 1   
   137  135  136 1   
   138  135  138 1   
   139  135  141 1   
   140  136  137 2   
   141  136  148 1   
   142  138  139 1   
   143  138  142 1   
   144  138  143 1   
   145  139  140 1   
   146  139  144 1   
   147  139  145 1   
   148  140  146 1   
   149  140  147 1   
   150  148  149 1   
   151  148  157 1   
   152  149  150 1   
   153  149  152 1   
   154  149  158 1   
   155  150  151 2   
   156  150  163 1   
   157  152  153 1   
   158  152  159 1   
   159  152  160 1   
   160  153  154 1   
   161  153  161 1   
   162  153  162 1   
   163  154  155 1   
   164  154  156 1   
   165  163  164 1   
   166  163  168 1   
   167  164  165 1   
   168  164  166 1   
   169  164  167 1   
   170  170  171 1   
   171  170  172 1   
   172  173  174 1   
   173  173  175 1   
@<TRIPOS>SUBSTRUCTURE
     1 MOL         1 TEMP              0 ****  ****    0 ROOT
