@<TRIPOS>MOLECULE
MOL
  172   171     1     0     0
SMALL
resp


@<TRIPOS>ATOM
      1 C1          0.2720    3.4150    5.7130 c3        1 MOL     -0.453843
      2 C2         -0.2620    3.5790    4.2770 c         1 MOL      0.729866
      3 O1          0.5050    3.7770    3.3540 o         1 MOL     -0.568337
      4 H1          0.2950    2.3570    5.9730 hc        1 MOL      0.105813
      5 H2          1.2800    3.8260    5.7760 hc        1 MOL      0.105813
      6 H3         -0.3800    3.9450    6.4070 hc        1 MOL      0.105813
      7 N1         -1.5380    3.3310    4.1290 n         1 MOL     -0.532710
      8 C3         -2.1440    3.1830    2.8480 c3        1 MOL      0.101173
      9 C4         -2.2250    4.4670    2.0500 c         1 MOL      0.499459
     10 O2         -2.4720    5.5540    2.6700 o         1 MOL     -0.586395
     11 C5         -3.5370    2.5400    3.0760 c3        1 MOL     -0.245637
     12 C6         -4.3120    2.3350    1.7850 c         1 MOL      0.690458
     13 O3         -3.6530    1.7420    0.8950 o         1 MOL     -0.644369
     14 O4         -5.5280    2.6230    1.8070 o         1 MOL     -0.644369
     15 H4         -2.1710    3.2630    4.9100 hn        1 MOL      0.301021
     16 H5         -1.5220    2.5020    2.2600 h1        1 MOL      0.029512
     17 H6         -4.0740    3.1890    3.7740 hc        1 MOL      0.046117
     18 H7         -3.5230    1.5830    3.5830 hc        1 MOL      0.046117
     19 N2         -2.0940    4.3750    0.7460 n         1 MOL     -0.403356
     20 C7         -2.3410    5.4550   -0.1990 c3        1 MOL      0.427140
     21 C8         -3.4390    5.1980   -1.2910 c         1 MOL      0.395072
     22 O5         -3.7930    6.1510   -1.9660 o         1 MOL     -0.565786
     23 C9         -0.9850    5.8880   -0.8260 c3        1 MOL     -0.431256
     24 H8         -1.6770    3.5490    0.3310 hn        1 MOL      0.292978
     25 H9         -2.7720    6.2980    0.3360 h1        1 MOL     -0.019506
     26 H10        -0.8340    5.3510   -1.7590 hc        1 MOL      0.102449
     27 H11        -1.0870    6.9430   -1.0880 hc        1 MOL      0.102449
     28 H12        -0.1980    5.6540   -0.1130 hc        1 MOL      0.102449
     29 N3         -4.0010    3.9930   -1.4240 n         1 MOL     -0.320283
     30 C10        -4.8700    3.6310   -2.5480 c3        1 MOL      0.148815
     31 C11        -6.0960    2.7950   -2.2510 c         1 MOL      0.320194
     32 O6         -6.9150    2.6460   -3.1490 o         1 MOL     -0.559204
     33 C12        -4.0190    2.9170   -3.5630 c3        1 MOL      0.047494
     34 C13        -3.1120    1.7690   -3.3140 c         1 MOL      0.633654
     35 O7         -3.2190    1.1600   -2.2100 o         1 MOL     -0.681415
     36 O8         -2.2080    1.4860   -4.1740 o         1 MOL     -0.681415
     37 H13        -3.7400    3.2700   -0.7640 hn        1 MOL      0.112154
     38 H14        -5.2160    4.5680   -2.9950 h1        1 MOL      0.063304
     39 H15        -3.4730    3.7230   -4.0660 hc        1 MOL     -0.027870
     40 H16        -4.6960    2.6400   -4.3660 hc        1 MOL     -0.027870
     41 N4         -6.3060    2.2880   -1.0490 n         1 MOL     -0.026518
     42 C14        -7.4940    1.4910   -0.6200 c3        1 MOL     -0.378966
     43 C15        -7.4330   -0.0200   -0.8780 c         1 MOL      0.589055
     44 O9         -8.4010   -0.6850   -0.5890 o         1 MOL     -0.611515
     45 H17        -5.6690    2.5750   -0.3230 hn        1 MOL      0.103480
     46 H18        -8.3670    1.7620   -1.2090 h1        1 MOL      0.158371
     47 H19        -7.6810    1.7140    0.4260 h1        1 MOL      0.158371
     48 N5         -6.3210   -0.5660   -1.4260 n         1 MOL     -0.221547
     49 C16        -6.2600   -1.9160   -2.0170 c3        1 MOL     -0.002353
     50 C17        -6.4090   -3.1240   -1.0090 c         1 MOL      0.443985
     51 O10        -6.2990   -4.2990   -1.4190 o         1 MOL     -0.536895
     52 C18        -5.0900   -2.0100   -3.0140 c3        1 MOL     -0.200989
     53 C19        -3.7200   -2.0580   -2.4230 c         1 MOL      0.511826
     54 N6         -2.7570   -2.2050   -3.2820 n         1 MOL     -0.559573
     55 O11        -3.4680   -1.9740   -1.2320 o         1 MOL     -0.582037
     56 H20        -5.5310    0.0810   -1.4610 hn        1 MOL      0.159297
     57 H21        -7.1470   -2.0030   -2.6530 h1        1 MOL      0.090554
     58 H22        -5.0840   -1.1710   -3.7030 hc        1 MOL      0.084566
     59 H23        -5.2330   -2.9330   -3.5780 hc        1 MOL      0.084566
     60 H24        -2.9730   -2.3950   -4.2510 hn        1 MOL      0.321004
     61 H25        -1.8330   -2.4610   -2.9630 hn        1 MOL      0.321004
     62 N7         -6.4090   -2.9020    0.2730 n         1 MOL     -0.242737
     63 C20        -6.3650   -3.9370    1.2930 c3        1 MOL     -0.284985
     64 C21        -5.0230   -4.5480    1.7550 c         1 MOL      0.510711
     65 O12        -4.9400   -5.4610    2.5310 o         1 MOL     -0.551842
     66 H26        -6.4660   -1.9810    0.6910 hn        1 MOL      0.285117
     67 H27        -6.9270   -4.7890    0.9200 h1        1 MOL      0.130221
     68 H28        -6.8100   -3.5860    2.2230 h1        1 MOL      0.130221
     69 N8         -3.9000   -4.1010    1.0880 n         1 MOL     -0.133223
     70 C22        -2.5600   -4.6080    1.2030 c3        1 MOL     -0.431451
     71 C23        -1.4340   -3.4640    1.2460 c         1 MOL      0.625104
     72 O13        -1.4170   -2.4110    0.5670 o         1 MOL     -0.521670
     73 C24        -2.1580   -5.4510   -0.0170 c3        1 MOL      0.506653
     74 C25        -3.0550   -6.6570   -0.2260 c3        1 MOL     -0.485826
     75 O14        -2.2540   -4.7570   -1.2500 oh        1 MOL     -0.589909
     76 H29        -4.1070   -3.5060    0.2940 hn        1 MOL      0.344839
     77 H30        -2.5660   -5.2710    2.0620 h1        1 MOL      0.149470
     78 H31        -1.1150   -5.7370    0.1090 h1        1 MOL     -0.032706
     79 H32        -1.6410   -4.0190   -1.3000 ho        1 MOL      0.349371
     80 H33        -3.1650   -7.2560    0.6860 hc        1 MOL      0.127629
     81 H34        -4.0160   -6.2440   -0.5380 hc        1 MOL      0.127629
     82 H35        -2.6510   -7.2810   -1.0190 hc        1 MOL      0.127629
     83 N9         -0.3820   -3.7540    2.0340 n         1 MOL     -0.481179
     84 C26         0.8590   -2.9620    2.0070 c3        1 MOL     -0.009044
     85 C27         1.5600   -3.1100    0.5840 c         1 MOL      0.588657
     86 O15         1.9270   -4.1810    0.1800 o         1 MOL     -0.604408
     87 C28         1.7420   -3.2030    3.3150 c3        1 MOL      0.068633
     88 C29         0.9480   -2.5590    4.4220 c3        1 MOL      0.030276
     89 C30         3.0860   -2.4910    3.1460 c3        1 MOL     -0.222651
     90 C31         1.5120   -3.0270    5.8490 c3        1 MOL     -0.084667
     91 H36        -0.3210   -4.6830    2.4360 hn        1 MOL      0.280515
     92 H37         0.6010   -1.8990    1.9770 h1        1 MOL      0.032318
     93 H38         1.7610   -4.2790    3.4620 hc        1 MOL      0.021346
     94 H39        -0.1410   -2.6590    4.4060 hc        1 MOL      0.018213
     95 H40         1.2120   -1.5040    4.4220 hc        1 MOL      0.018213
     96 H41         3.5430   -2.9440    2.2620 hc        1 MOL      0.055682
     97 H42         2.9730   -1.4120    3.0830 hc        1 MOL      0.055682
     98 H43         3.7050   -2.7040    4.0230 hc        1 MOL      0.055682
     99 H44         1.3110   -4.0860    5.9490 hc        1 MOL      0.008475
    100 H45         2.5930   -2.9370    5.9450 hc        1 MOL      0.008475
    101 H46         0.9690   -2.4480    6.5900 hc        1 MOL      0.008475
    102 N10         1.9130   -2.0190   -0.0580 n         1 MOL     -0.285471
    103 C32         2.7530   -1.9390   -1.2710 c3        1 MOL      0.025733
    104 C33         4.1370   -1.5900   -0.8360 c         1 MOL      0.654745
    105 O16         4.3920   -1.1330    0.2960 o         1 MOL     -0.471549
    106 C34         2.0760   -1.0050   -2.2700 c3        1 MOL     -0.286331
    107 C35         0.5540   -1.2330   -2.5600 c         1 MOL      0.762182
    108 O17        -0.3030   -0.6340   -1.8670 o         1 MOL     -0.693506
    109 O18         0.2000   -2.0220   -3.4680 o         1 MOL     -0.693506
    110 H47         1.5580   -1.1810    0.3800 hn        1 MOL      0.160561
    111 H48         2.8080   -2.9060   -1.7660 h1        1 MOL      0.075033
    112 H49         2.6690   -1.0160   -3.1910 hc        1 MOL      0.076843
    113 H50         2.1290    0.0460   -1.9930 hc        1 MOL      0.076843
    114 N11         5.0560   -1.7840   -1.7850 n         1 MOL     -0.860297
    115 C36         6.4710   -1.4180   -1.5280 c3        1 MOL      0.668568
    116 C37         6.5780    0.0150   -1.0310 c         1 MOL      0.190349
    117 O19         7.1340    0.1320    0.0620 o         1 MOL     -0.436792
    118 C38         7.3270   -1.7750   -2.6910 c3        1 MOL     -0.444163
    119 C39         8.7790   -1.5150   -2.2940 ca        1 MOL      0.238128
    120 C40         9.4250   -2.1610   -1.2090 ca        1 MOL     -0.271169
    121 C41         9.5160   -0.5590   -3.0720 ca        1 MOL     -0.271169
    122 C42        10.7490   -1.8340   -0.9370 ca        1 MOL     -0.025499
    123 C43        10.8540   -0.2980   -2.8180 ca        1 MOL     -0.025499
    124 C44        11.4590   -0.9590   -1.7650 ca        1 MOL     -0.179715
    125 H51         4.8630   -2.2960   -2.6320 hn        1 MOL      0.385008
    126 H52         6.7690   -2.0310   -0.6790 h1        1 MOL      0.001526
    127 H53         7.0140   -1.2560   -3.6040 hc        1 MOL      0.107905
    128 H54         7.1200   -2.8330   -2.8620 hc        1 MOL      0.107905
    129 H55         8.8460   -2.8530   -0.6010 ha        1 MOL      0.138422
    130 H56         8.9770    0.0170   -3.8050 ha        1 MOL      0.138422
    131 H57        11.2980   -2.2910   -0.1230 ha        1 MOL      0.096297
    132 H58        11.4810    0.4120   -3.3390 ha        1 MOL      0.096297
    133 H59        12.4990   -0.7550   -1.5500 ha        1 MOL      0.106337
    134 N12         6.0850    1.0940   -1.7410 n         1 MOL     -0.090842
    135 C45         6.2610    2.4280   -1.2540 c3        1 MOL      0.074987
    136 C46         5.6330    2.7020    0.1190 c         1 MOL      0.196133
    137 O20         6.0540    3.6330    0.8330 o         1 MOL     -0.485513
    138 C47         5.5880    3.3310   -2.3030 c3        1 MOL     -0.057627
    139 C48         5.3730    2.5440   -3.6050 c3        1 MOL     -0.013735
    140 C49         5.2860    1.1040   -2.9810 c3        1 MOL     -0.078030
    141 H60         7.3260    2.6610   -1.1810 h1        1 MOL      0.072822
    142 H61         4.5990    3.6070   -1.9310 hc        1 MOL      0.036586
    143 H62         6.2590    4.1510   -2.5680 hc        1 MOL      0.036586
    144 H63         4.4770    2.8320   -4.1400 hc        1 MOL      0.034180
    145 H64         6.2560    2.5780   -4.2410 hc        1 MOL      0.034180
    146 H65         4.2380    0.8610   -2.8110 h1        1 MOL      0.051440
    147 H66         5.7080    0.4200   -3.7140 h1        1 MOL      0.051440
    148 N13         4.6560    1.8690    0.5590 n         1 MOL      0.007248
    149 C50         4.0650    2.0200    1.9000 c3        1 MOL     -0.131566
    150 C51         4.8330    1.2790    2.9350 c         1 MOL      0.423938
    151 O21         4.8920    1.7430    4.0830 o         1 MOL     -0.582778
    152 C52         2.6090    1.4200    1.8240 c3        1 MOL     -0.174754
    153 C53         1.7900    1.9900    0.6320 c3        1 MOL     -0.049386
    154 C54         0.3770    1.4880    0.6260 c         1 MOL      0.672725
    155 O22        -0.4490    1.9980   -0.1720 o         1 MOL     -0.768695
    156 O23         0.0550    0.4460    1.2690 o         1 MOL     -0.768695
    157 H67         4.3030    1.0860    0.0160 hn        1 MOL      0.155347
    158 H68         4.0420    3.0820    2.1420 h1        1 MOL      0.138617
    159 H69         2.1480    1.6980    2.7650 hc        1 MOL      0.123921
    160 H70         2.6200    0.3330    1.7180 hc        1 MOL      0.123921
    161 H71         2.1980    1.7450   -0.3540 hc        1 MOL      0.059408
    162 H72         1.8770    3.0770    0.6630 hc        1 MOL      0.059408
    163 N14         5.6750    0.3330    2.5820 n         1 MOL      0.059015
    164 C55         6.5840   -0.3330    3.4910 c3        1 MOL     -0.150220
    165 H73         6.2880   -1.3770    3.5990 h1        1 MOL      0.057410
    166 H74         7.5980   -0.2830    3.0930 h1        1 MOL      0.057410
    167 H75         6.5490    0.1570    4.4640 h1        1 MOL      0.057410
    168 H76         5.6160    0.1120    1.5920 hn        1 MOL     -0.003662
    169 Ca1        -2.0440   -0.0420   -0.1800 Ca        1 MOL      1.732595
    170 O24        -3.9160   -1.1150    1.6210 oh        1 MOL     -1.075202
    171 H77        -3.3170   -1.0390    2.3630 ho        1 MOL      0.470613
    172 H78        -4.7700   -0.8630    1.9680 ho        1 MOL      0.470613
@<TRIPOS>BOND
     1    1    2 1   
     2    1    4 1   
     3    1    5 1   
     4    1    6 1   
     5    2    3 2   
     6    2    7 1   
     7    7    8 1   
     8    7   15 1   
     9    8    9 1   
    10    8   11 1   
    11    8   16 1   
    12    9   10 2   
    13    9   19 1   
    14   11   12 1   
    15   11   17 1   
    16   11   18 1   
    17   12   13 1   
    18   12   14 1   
    19   19   20 1   
    20   19   24 1   
    21   20   21 1   
    22   20   23 1   
    23   20   25 1   
    24   21   22 2   
    25   21   29 1   
    26   23   26 1   
    27   23   27 1   
    28   23   28 1   
    29   29   30 1   
    30   29   37 1   
    31   30   31 1   
    32   30   33 1   
    33   30   38 1   
    34   31   32 2   
    35   31   41 1   
    36   33   34 1   
    37   33   39 1   
    38   33   40 1   
    39   34   35 1   
    40   34   36 1   
    41   41   42 1   
    42   41   45 1   
    43   42   43 1   
    44   42   46 1   
    45   42   47 1   
    46   43   44 2   
    47   43   48 1   
    48   48   49 1   
    49   48   56 1   
    50   49   50 1   
    51   49   52 1   
    52   49   57 1   
    53   50   51 2   
    54   50   62 1   
    55   52   53 1   
    56   52   58 1   
    57   52   59 1   
    58   53   54 1   
    59   53   55 2   
    60   54   60 1   
    61   54   61 1   
    62   62   63 1   
    63   62   66 1   
    64   63   64 1   
    65   63   67 1   
    66   63   68 1   
    67   64   65 2   
    68   64   69 1   
    69   69   70 1   
    70   69   76 1   
    71   70   71 1   
    72   70   73 1   
    73   70   77 1   
    74   71   72 2   
    75   71   83 1   
    76   73   74 1   
    77   73   75 1   
    78   73   78 1   
    79   74   80 1   
    80   74   81 1   
    81   74   82 1   
    82   75   79 1   
    83   83   84 1   
    84   83   91 1   
    85   84   85 1   
    86   84   87 1   
    87   84   92 1   
    88   85   86 2   
    89   85  102 1   
    90   87   88 1   
    91   87   89 1   
    92   87   93 1   
    93   88   90 1   
    94   88   94 1   
    95   88   95 1   
    96   89   96 1   
    97   89   97 1   
    98   89   98 1   
    99   90   99 1   
   100   90  100 1   
   101   90  101 1   
   102  102  103 1   
   103  102  110 1   
   104  103  104 1   
   105  103  106 1   
   106  103  111 1   
   107  104  105 2   
   108  104  114 1   
   109  106  107 1   
   110  106  112 1   
   111  106  113 1   
   112  107  108 1   
   113  107  109 1   
   114  114  115 1   
   115  114  125 1   
   116  115  116 1   
   117  115  118 1   
   118  115  126 1   
   119  116  117 2   
   120  116  134 1   
   121  118  119 1   
   122  118  127 1   
   123  118  128 1   
   124  119  120 ar  
   125  119  121 ar  
   126  120  122 ar  
   127  120  129 1   
   128  121  123 ar  
   129  121  130 1   
   130  122  124 ar  
   131  122  131 1   
   132  123  124 ar  
   133  123  132 1   
   134  124  133 1   
   135  134  135 1   
   136  134  140 1   
   137  135  136 1   
   138  135  138 1   
   139  135  141 1   
   140  136  137 2   
   141  136  148 1   
   142  138  139 1   
   143  138  142 1   
   144  138  143 1   
   145  139  140 1   
   146  139  144 1   
   147  139  145 1   
   148  140  146 1   
   149  140  147 1   
   150  148  149 1   
   151  148  157 1   
   152  149  150 1   
   153  149  152 1   
   154  149  158 1   
   155  150  151 2   
   156  150  163 1   
   157  152  153 1   
   158  152  159 1   
   159  152  160 1   
   160  153  154 1   
   161  153  161 1   
   162  153  162 1   
   163  154  155 1   
   164  154  156 1   
   165  163  164 1   
   166  163  168 1   
   167  164  165 1   
   168  164  166 1   
   169  164  167 1   
   170  170  171 1   
   171  170  172 1   
@<TRIPOS>SUBSTRUCTURE
     1 MOL         1 TEMP              0 ****  ****    0 ROOT
