@<TRIPOS>MOLECULE
MOL
  179   176     1     0     0
SMALL
resp


@<TRIPOS>ATOM
      1 C1         -0.4150    4.9070    5.1000 c3        1 MOL     -0.283727
      2 C2         -0.7120    4.2750    3.7730 c         1 MOL      0.593037
      3 O1          0.0310    4.5220    2.8360 o         1 MOL     -0.537557
      4 H1         -1.2370    5.5660    5.3810 hc        1 MOL      0.075341
      5 H2         -0.2980    4.1300    5.8560 hc        1 MOL      0.075341
      6 H3          0.5050    5.4870    5.0300 hc        1 MOL      0.075341
      7 N1         -1.7290    3.3860    3.6800 n         1 MOL     -0.556360
      8 C3         -2.1920    2.8170    2.3680 c3        1 MOL      0.027192
      9 C4         -3.0690    3.7200    1.5220 c         1 MOL      0.586907
     10 O2         -4.3100    3.6270    1.5770 o         1 MOL     -0.519138
     11 C5         -2.8550    1.4150    2.6900 c3        1 MOL     -0.145234
     12 C6         -3.2540    0.6120    1.3940 c         1 MOL      0.768096
     13 O3         -2.4950    0.4970    0.4130 o         1 MOL     -0.754053
     14 O4         -4.2360   -0.1460    1.5630 o         1 MOL     -0.754053
     15 H4         -2.2940    3.2410    4.5020 hn        1 MOL      0.335205
     16 H5         -1.3340    2.5850    1.7340 h1        1 MOL      0.046584
     17 H6         -3.6580    1.5410    3.4240 hc        1 MOL      0.058116
     18 H7         -2.0590    0.8310    3.1370 hc        1 MOL      0.058116
     19 N2         -2.4640    4.7130    0.7840 n         1 MOL     -0.414118
     20 C7         -3.1810    5.8440    0.1020 c3        1 MOL     -0.062627
     21 C8         -3.8620    5.4540   -1.2100 c         1 MOL      0.452148
     22 O5         -4.6940    6.3000   -1.6030 o         1 MOL     -0.554661
     23 C9         -2.1610    7.0220   -0.1850 c3        1 MOL     -0.095797
     24 C10        -1.2740    7.3590    0.9670 c3        1 MOL     -0.013999
     25 C11        -0.1910    8.3550    0.6340 c3        1 MOL     -0.158980
     26 C12         0.4730    8.5820    1.9740 c3        1 MOL      0.074584
     27 N3          1.3970    9.7340    1.9540 n4        1 MOL     -0.294249
     28 H8         -1.4580    4.6670    0.6690 hn        1 MOL      0.335230
     29 H9         -4.0190    6.2740    0.6470 h1        1 MOL      0.136438
     30 H10        -2.5990    7.8760   -0.7180 hc        1 MOL      0.064899
     31 H11        -1.4970    6.6400   -0.9610 hc        1 MOL      0.064899
     32 H12        -0.7680    6.4920    1.4060 hc        1 MOL      0.023850
     33 H13        -2.0040    7.5590    1.7600 hc        1 MOL      0.023850
     34 H14        -0.6690    9.2150    0.1760 hc        1 MOL      0.082187
     35 H15         0.4740    7.9000   -0.1010 hc        1 MOL      0.082187
     36 H16         1.0590    7.6960    2.2020 hx        1 MOL      0.087396
     37 H17        -0.2490    8.6890    2.7730 hx        1 MOL      0.087396
     38 H18         0.9810   10.6500    1.8170 hn        1 MOL      0.304264
     39 H19         1.9030    9.8260    2.8240 hn        1 MOL      0.304264
     40 H20         2.0290    9.6790    1.1720 hn        1 MOL      0.304264
     41 N4         -3.7650    4.2310   -1.7330 n         1 MOL     -0.279627
     42 C13        -4.5690    3.7370   -2.8700 c3        1 MOL      0.098844
     43 C14        -5.7350    2.8810   -2.2620 c         1 MOL      0.314501
     44 O6         -6.6320    2.3540   -2.9480 o         1 MOL     -0.511849
     45 C15        -3.7180    2.7910   -3.8230 c3        1 MOL     -0.265546
     46 C16        -2.7790    1.8890   -3.0430 c         1 MOL      0.683113
     47 O7         -3.1040    0.6740   -2.8660 o         1 MOL     -0.700945
     48 O8         -1.7280    2.3100   -2.5510 o         1 MOL     -0.700945
     49 H21        -3.1170    3.5440   -1.3870 hn        1 MOL      0.202462
     50 H22        -4.9680    4.5560   -3.4780 h1        1 MOL      0.096373
     51 H23        -3.1380    3.4120   -4.5140 hc        1 MOL      0.079410
     52 H24        -4.4410    2.2500   -4.4470 hc        1 MOL      0.079410
     53 N5         -5.6440    2.6020   -0.9540 n         1 MOL     -0.101284
     54 C17        -6.5800    1.7570   -0.1930 c3        1 MOL      0.011573
     55 C18        -6.8800    0.3320   -0.7230 c         1 MOL      0.422495
     56 O9         -8.0620   -0.0900   -0.5900 o         1 MOL     -0.558099
     57 H25        -4.9430    3.1150   -0.4140 hn        1 MOL      0.124596
     58 H26        -7.5000    2.2810    0.0810 h1        1 MOL      0.051562
     59 H27        -6.0780    1.5640    0.7520 h1        1 MOL      0.051562
     60 N6         -5.8980   -0.4330   -1.2630 n         1 MOL     -0.059433
     61 C19        -6.1450   -1.7670   -1.7520 c3        1 MOL     -0.234724
     62 C20        -5.9780   -2.8150   -0.5980 c         1 MOL      0.338136
     63 O10        -6.1590   -3.9920   -0.8750 o         1 MOL     -0.484744
     64 C21        -5.2450   -2.0180   -2.9550 c3        1 MOL     -0.025257
     65 C22        -3.8100   -2.4000   -2.5010 c         1 MOL      0.379755
     66 N7         -3.2480   -3.4330   -3.0560 n         1 MOL     -0.621339
     67 O11        -3.1940   -1.7860   -1.6630 o         1 MOL     -0.441107
     68 H28        -4.9220   -0.1640   -1.2080 hn        1 MOL      0.110293
     69 H29        -7.1870   -1.8530   -2.0360 h1        1 MOL      0.177298
     70 H30        -5.1930   -1.1260   -3.5830 hc        1 MOL      0.066533
     71 H31        -5.6840   -2.7480   -3.6360 hc        1 MOL      0.066533
     72 H32        -3.8060   -3.8460   -3.7930 hn        1 MOL      0.319792
     73 H33        -2.4290   -3.8620   -2.6570 hn        1 MOL      0.319792
     74 N8         -5.5020   -2.4410    0.6100 n         1 MOL     -0.070157
     75 C23        -5.3240   -3.1730    1.8660 c3        1 MOL     -0.410941
     76 C24        -3.9430   -3.7270    2.2030 c         1 MOL      0.705927
     77 O12        -3.8180   -4.3210    3.3280 o         1 MOL     -0.592322
     78 H34        -5.2280   -1.4870    0.7850 hn        1 MOL      0.244365
     79 H35        -6.0730   -3.9700    1.8770 h1        1 MOL      0.153824
     80 H36        -5.5710   -2.4520    2.6460 h1        1 MOL      0.153824
     81 N9         -2.9690   -3.5020    1.2990 n         1 MOL     -0.292302
     82 C25        -1.5790   -3.9370    1.4160 c3        1 MOL     -0.122358
     83 C26        -0.4010   -2.9430    1.0750 c         1 MOL      0.459797
     84 O13        -0.6290   -2.1330    0.1550 o         1 MOL     -0.553425
     85 C27        -1.4410   -5.0270    0.4420 c3        1 MOL      0.235752
     86 C28        -2.2720   -6.2520    0.6990 ca        1 MOL     -0.058282
     87 C29        -3.5750   -6.4120    0.1980 ca        1 MOL     -0.160622
     88 C30        -1.7710   -7.3010    1.5130 ca        1 MOL     -0.160622
     89 C31        -4.3830   -7.4310    0.5660 ca        1 MOL     -0.248833
     90 C32        -2.5610   -8.4280    1.9290 ca        1 MOL     -0.248833
     91 C33        -3.8980   -8.4560    1.4120 ca        1 MOL      0.359028
     92 O14        -4.6660   -9.5540    1.6910 oh        1 MOL     -0.447911
     93 H37        -3.1950   -2.8820    0.5290 hn        1 MOL      0.304773
     94 H38        -1.4670   -4.4210    2.3950 h1        1 MOL      0.081288
     95 H39        -0.3890   -5.3080    0.4120 hc        1 MOL     -0.066845
     96 H40        -1.6920   -4.6460   -0.5450 hc        1 MOL     -0.066845
     97 H41        -3.8800   -5.6540   -0.4990 ha        1 MOL      0.118948
     98 H42        -0.7440   -7.1970    1.8220 ha        1 MOL      0.118948
     99 H43        -5.3220   -7.5570    0.0500 ha        1 MOL      0.151833
    100 H44        -2.1090   -9.2500    2.4590 ha        1 MOL      0.151833
    101 H45        -4.0060  -10.1240    2.0910 ho        1 MOL      0.314692
    102 N10         0.8070   -3.1440    1.6080 n         1 MOL     -0.289449
    103 C34         1.9200   -2.2500    1.3580 c3        1 MOL     -0.001473
    104 C35         3.2120   -3.0320    1.1100 c         1 MOL      0.438967
    105 O15         3.6450   -3.8220    1.9670 o         1 MOL     -0.502235
    106 C36         2.0550   -1.2170    2.4810 c3        1 MOL     -0.140228
    107 C37         0.9460   -0.1630    2.4290 c3        1 MOL      0.032327
    108 C38         3.4290   -0.4940    2.5000 c3        1 MOL     -0.013522
    109 C39         0.9190    0.8570    3.6250 c3        1 MOL      0.054268
    110 H46         0.7930   -3.5700    2.5280 hn        1 MOL      0.267850
    111 H47         1.6600   -1.6590    0.4770 h1        1 MOL      0.039158
    112 H48         1.9670   -1.7420    3.4350 hc        1 MOL      0.055446
    113 H49         0.0200   -0.7260    2.3640 hc        1 MOL     -0.006948
    114 H50         1.0940    0.2560    1.4260 hc        1 MOL     -0.006948
    115 H51         3.5550    0.2340    1.7000 hc        1 MOL      0.013281
    116 H52         3.6480    0.0040    3.4420 hc        1 MOL      0.013281
    117 H53         4.1830   -1.2640    2.3110 hc        1 MOL      0.013281
    118 H54         0.0410    1.4840    3.4470 hc        1 MOL     -0.004708
    119 H55         0.7730    0.3660    4.5850 hc        1 MOL     -0.004708
    120 H56         1.8420    1.4160    3.6650 hc        1 MOL     -0.004708
    121 N11         3.8860   -2.8790   -0.0560 n         1 MOL     -0.289499
    122 C40         5.2310   -3.3990   -0.3280 c3        1 MOL     -0.079982
    123 C41         6.2990   -2.5090    0.2870 c         1 MOL      0.515628
    124 O16         6.0970   -1.3860    0.7480 o         1 MOL     -0.316817
    125 C42         5.3680   -3.3870   -1.8270 c3        1 MOL     -0.126079
    126 O17         5.3160   -1.9760   -2.2740 oh        1 MOL     -0.505198
    127 H57         3.4030   -2.2880   -0.7290 hn        1 MOL      0.249254
    128 H58         5.2220   -4.4320    0.0080 h1        1 MOL      0.117730
    129 H59         4.5550   -3.9370   -2.2970 h1        1 MOL      0.126762
    130 H60         6.3290   -3.8120   -2.1100 h1        1 MOL      0.126762
    131 H61         4.3840   -1.7730   -2.3850 ho        1 MOL      0.390927
    132 N12         7.5900   -2.9250    0.1890 n         1 MOL     -0.479754
    133 C43         8.6310   -2.0830    0.7120 c3        1 MOL      0.156359
    134 C44         9.2290   -1.0450   -0.2730 c         1 MOL      0.343658
    135 O18         9.9070   -0.0880    0.1240 o         1 MOL     -0.460002
    136 C45         9.7360   -3.0500    1.0800 c3        1 MOL     -0.220866
    137 H62         7.9080   -3.6660   -0.4180 hn        1 MOL      0.285157
    138 H63         8.3650   -1.5430    1.6190 h1        1 MOL      0.094879
    139 H64        10.0720   -3.6100    0.2080 hc        1 MOL      0.068798
    140 H65        10.6340   -2.5040    1.3930 hc        1 MOL      0.068798
    141 H66         9.4150   -3.7660    1.8320 hc        1 MOL      0.068798
    142 N13         9.0070   -1.1880   -1.5760 n         1 MOL     -0.364782
    143 C46         8.7930   -0.1150   -2.5360 c3        1 MOL      0.170683
    144 C47         7.8680    1.0180   -2.0370 c         1 MOL      0.358752
    145 O19         8.2120    2.2060   -2.0920 o         1 MOL     -0.489375
    146 C48         8.5310   -0.6790   -3.9130 c3        1 MOL     -0.266486
    147 H67         8.5960   -2.0400   -1.9080 hn        1 MOL      0.266339
    148 H68         9.7430    0.3930   -2.6660 h1        1 MOL      0.065524
    149 H69         9.4070   -1.2300   -4.2180 hc        1 MOL      0.078195
    150 H70         7.7110   -1.3930   -3.8170 hc        1 MOL      0.078195
    151 H71         8.2800    0.0410   -4.6950 hc        1 MOL      0.078195
    152 N14         6.6680    0.6040   -1.5150 n         1 MOL     -0.043867
    153 C49         5.5580    1.5420   -1.1990 c3        1 MOL     -0.228974
    154 C50         5.9150    2.3560    0.0720 c         1 MOL      0.584230
    155 O20         5.8500    3.5900    0.0510 o         1 MOL     -0.556500
    156 C51         4.1590    0.9230   -1.0550 c3        1 MOL      0.072700
    157 C52         3.0190    1.8360   -0.6890 c3        1 MOL     -0.316025
    158 C53         1.6350    1.2630   -0.7390 c         1 MOL      0.887308
    159 O21         0.6760    2.0250   -0.7310 o         1 MOL     -0.765169
    160 O22         1.4460    0.0680   -1.0410 o         1 MOL     -0.765169
    161 H72         6.5670   -0.3980   -1.5130 hn        1 MOL     -0.020642
    162 H73         5.5170    2.2280   -2.0480 h1        1 MOL      0.121051
    163 H74         4.1050   -0.0000   -0.4800 hc        1 MOL      0.006666
    164 H75         3.9090    0.6010   -2.0680 hc        1 MOL      0.006666
    165 H76         3.0090    2.6200   -1.4380 hc        1 MOL      0.087491
    166 H77         3.2530    2.4490    0.1870 hc        1 MOL      0.087491
    167 N15         6.2830    1.6310    1.1520 n         1 MOL     -0.121960
    168 C54         6.6880    2.2360    2.3870 c3        1 MOL     -0.366829
    169 H78         5.8420    2.7640    2.8270 h1        1 MOL      0.130030
    170 H79         7.0320    1.4640    3.0740 h1        1 MOL      0.130030
    171 H80         7.4980    2.9420    2.1970 h1        1 MOL      0.130030
    172 H81         6.0990    0.6390    1.1130 hn        1 MOL      0.105224
    173 Ca1        -1.0410   -0.1770   -1.5320 Ca        1 MOL      1.721178
    174 O23         0.4570    0.3650   -3.8880 oh        1 MOL     -0.782293
    175 H82         1.3040    0.8110   -3.8820 ho        1 MOL      0.392474
    176 H83         0.0420    0.6560   -4.7020 ho        1 MOL      0.392474
    177 O24        -0.4440   -2.4430   -2.7410 oh        1 MOL     -0.782293
    178 H84        -0.0040   -2.6230   -3.5660 ho        1 MOL      0.392474
    179 H85        -0.4840   -3.2960   -2.3000 ho        1 MOL      0.392474
@<TRIPOS>BOND
     1    1    2 1   
     2    1    4 1   
     3    1    5 1   
     4    1    6 1   
     5    2    3 2   
     6    2    7 1   
     7    7    8 1   
     8    7   15 1   
     9    8    9 1   
    10    8   11 1   
    11    8   16 1   
    12    9   10 2   
    13    9   19 1   
    14   11   12 1   
    15   11   17 1   
    16   11   18 1   
    17   12   13 1   
    18   12   14 1   
    19   19   20 1   
    20   19   28 1   
    21   20   21 1   
    22   20   23 1   
    23   20   29 1   
    24   21   22 2   
    25   21   41 1   
    26   23   24 1   
    27   23   30 1   
    28   23   31 1   
    29   24   25 1   
    30   24   32 1   
    31   24   33 1   
    32   25   26 1   
    33   25   34 1   
    34   25   35 1   
    35   26   27 1   
    36   26   36 1   
    37   26   37 1   
    38   27   38 1   
    39   27   39 1   
    40   27   40 1   
    41   41   42 1   
    42   41   49 1   
    43   42   43 1   
    44   42   45 1   
    45   42   50 1   
    46   43   44 2   
    47   43   53 1   
    48   45   46 1   
    49   45   51 1   
    50   45   52 1   
    51   46   47 1   
    52   46   48 1   
    53   53   54 1   
    54   53   57 1   
    55   54   55 1   
    56   54   58 1   
    57   54   59 1   
    58   55   56 2   
    59   55   60 1   
    60   60   61 1   
    61   60   68 1   
    62   61   62 1   
    63   61   64 1   
    64   61   69 1   
    65   62   63 2   
    66   62   74 1   
    67   64   65 1   
    68   64   70 1   
    69   64   71 1   
    70   65   66 1   
    71   65   67 2   
    72   66   72 1   
    73   66   73 1   
    74   74   75 1   
    75   74   78 1   
    76   75   76 1   
    77   75   79 1   
    78   75   80 1   
    79   76   77 2   
    80   76   81 1   
    81   81   82 1   
    82   81   93 1   
    83   82   83 1   
    84   82   85 1   
    85   82   94 1   
    86   83   84 2   
    87   83  102 1   
    88   85   86 1   
    89   85   95 1   
    90   85   96 1   
    91   86   87 ar  
    92   86   88 ar  
    93   87   89 ar  
    94   87   97 1   
    95   88   90 ar  
    96   88   98 1   
    97   89   91 ar  
    98   89   99 1   
    99   90   91 ar  
   100   90  100 1   
   101   91   92 1   
   102   92  101 1   
   103  102  103 1   
   104  102  110 1   
   105  103  104 1   
   106  103  106 1   
   107  103  111 1   
   108  104  105 2   
   109  104  121 1   
   110  106  107 1   
   111  106  108 1   
   112  106  112 1   
   113  107  109 1   
   114  107  113 1   
   115  107  114 1   
   116  108  115 1   
   117  108  116 1   
   118  108  117 1   
   119  109  118 1   
   120  109  119 1   
   121  109  120 1   
   122  121  122 1   
   123  121  127 1   
   124  122  123 1   
   125  122  125 1   
   126  122  128 1   
   127  123  124 2   
   128  123  132 1   
   129  125  126 1   
   130  125  129 1   
   131  125  130 1   
   132  126  131 1   
   133  132  133 1   
   134  132  137 1   
   135  133  134 1   
   136  133  136 1   
   137  133  138 1   
   138  134  135 2   
   139  134  142 1   
   140  136  139 1   
   141  136  140 1   
   142  136  141 1   
   143  142  143 1   
   144  142  147 1   
   145  143  144 1   
   146  143  146 1   
   147  143  148 1   
   148  144  145 2   
   149  144  152 1   
   150  146  149 1   
   151  146  150 1   
   152  146  151 1   
   153  152  153 1   
   154  152  161 1   
   155  153  154 1   
   156  153  156 1   
   157  153  162 1   
   158  154  155 2   
   159  154  167 1   
   160  156  157 1   
   161  156  163 1   
   162  156  164 1   
   163  157  158 1   
   164  157  165 1   
   165  157  166 1   
   166  158  159 1   
   167  158  160 1   
   168  167  168 1   
   169  167  172 1   
   170  168  169 1   
   171  168  170 1   
   172  168  171 1   
   173  174  175 1   
   174  174  176 1   
   175  177  178 1   
   176  177  179 1   
@<TRIPOS>SUBSTRUCTURE
     1 MOL         1 TEMP              0 ****  ****    0 ROOT
