@<TRIPOS>MOLECULE
MOL
  180   179     1     0     0
SMALL
resp


@<TRIPOS>ATOM
      1 C1         -0.7900    1.5170    6.2820 c3        1 MOL     -0.399770
      2 C2         -1.1260    1.6860    4.7870 c         1 MOL      0.850362
      3 O1         -0.5630    2.5290    4.2400 o         1 MOL     -0.597441
      4 H1         -1.6500    1.0970    6.8020 hc        1 MOL      0.081077
      5 H2          0.0620    0.8460    6.3890 hc        1 MOL      0.081077
      6 H3         -0.5450    2.4880    6.7120 hc        1 MOL      0.081077
      7 N1         -2.1800    0.9580    4.2920 n         1 MOL     -0.686958
      8 C3         -2.7460    1.0670    2.9230 c3        1 MOL      0.165116
      9 C4         -3.2220    2.5290    2.5900 c         1 MOL      0.536135
     10 O2         -4.2990    2.9270    3.0730 o         1 MOL     -0.571035
     11 C5         -3.9490    0.1700    2.8600 c3        1 MOL     -0.228587
     12 C6         -4.6670    0.1000    1.5130 c         1 MOL      0.826834
     13 O3         -5.8150   -0.4100    1.5000 o         1 MOL     -0.686304
     14 O4         -4.1370    0.5610    0.4940 o         1 MOL     -0.686304
     15 H4         -2.6590    0.3370    4.9250 hn        1 MOL      0.330426
     16 H5         -2.0150    0.6440    2.2240 h1        1 MOL      0.041137
     17 H6         -4.6180    0.4270    3.6730 hc        1 MOL      0.029305
     18 H7         -3.6180   -0.8640    3.0380 hc        1 MOL      0.029305
     19 N2         -2.5430    3.2050    1.6840 n         1 MOL     -0.311295
     20 C7         -2.7160    4.5750    1.2140 c3        1 MOL     -0.105329
     21 C8         -3.7960    4.6320    0.2110 c         1 MOL      0.477845
     22 O5         -4.5570    5.5750    0.1710 o         1 MOL     -0.587788
     23 C9         -1.3910    5.1280    0.6740 c3        1 MOL      0.211836
     24 C10        -0.2130    5.0460    1.6450 c3        1 MOL     -0.013418
     25 C11        -1.5290    6.5360    0.3020 c3        1 MOL     -0.270731
     26 C12         1.1250    5.5210    1.1660 c3        1 MOL     -0.110519
     27 H8         -1.8940    2.6290    1.1620 hn        1 MOL      0.169168
     28 H9         -3.0370    5.2810    1.9890 h1        1 MOL      0.093640
     29 H10        -1.1330    4.4930   -0.1820 hc        1 MOL      0.032410
     30 H11         0.0330    4.0180    1.9240 hc        1 MOL      0.010149
     31 H12        -0.5140    5.5980    2.5300 hc        1 MOL      0.010149
     32 H13        -2.3900    6.7270   -0.3500 hc        1 MOL      0.055265
     33 H14        -1.6010    7.1520    1.2000 hc        1 MOL      0.055265
     34 H15        -0.6910    6.9370   -0.2680 hc        1 MOL      0.055265
     35 H16         1.3780    5.1630    0.1740 hc        1 MOL      0.019457
     36 H17         1.2690    6.5990    1.1980 hc        1 MOL      0.019457
     37 H18         1.9090    5.0620    1.7780 hc        1 MOL      0.019457
     38 N3         -4.0420    3.5840   -0.5160 n         1 MOL     -0.063055
     39 C13        -5.0080    3.4930   -1.6110 c3        1 MOL     -0.176627
     40 C14        -6.3640    2.8620   -1.2330 c         1 MOL      0.458209
     41 O6         -7.3720    3.2020   -1.8140 o         1 MOL     -0.558421
     42 C15        -4.5670    2.5340   -2.7330 c3        1 MOL      0.057586
     43 C16        -3.0900    2.6420   -2.9830 c         1 MOL      0.639379
     44 O7         -2.6530    3.5760   -3.6750 o         1 MOL     -0.683546
     45 O8         -2.2790    1.6960   -2.7140 o         1 MOL     -0.683546
     46 H19        -3.3170    2.8930   -0.3600 hn        1 MOL      0.082121
     47 H20        -5.0980    4.4690   -2.0840 h1        1 MOL      0.113935
     48 H21        -5.0850    2.8560   -3.6380 hc        1 MOL     -0.004344
     49 H22        -4.9150    1.5540   -2.4160 hc        1 MOL     -0.004344
     50 N4         -6.4290    2.0920   -0.1490 n         1 MOL     -0.112985
     51 C17        -7.6800    1.5310    0.3660 c3        1 MOL     -0.310796
     52 C18        -8.1230    0.2460   -0.4070 c         1 MOL      0.549819
     53 O9         -9.2660   -0.0730   -0.5540 o         1 MOL     -0.594099
     54 H23        -5.6030    1.8540    0.3820 hn        1 MOL      0.130472
     55 H24        -8.5010    2.2500    0.3380 h1        1 MOL      0.133575
     56 H25        -7.4590    1.2490    1.3940 h1        1 MOL      0.133575
     57 N5         -7.1670   -0.4770   -1.0220 n         1 MOL     -0.269166
     58 C19        -7.3410   -1.6870   -1.7830 c3        1 MOL      0.077039
     59 C20        -7.2380   -2.9160   -0.8660 c         1 MOL      0.362333
     60 O10        -7.6330   -4.0360   -1.2530 o         1 MOL     -0.561101
     61 C21        -6.2830   -1.8530   -2.9220 c3        1 MOL     -0.322432
     62 C22        -4.8000   -1.4970   -2.5640 c         1 MOL      0.773588
     63 O11        -4.0360   -0.8510   -3.3100 o         1 MOL     -0.757974
     64 O12        -4.4790   -1.7710   -1.3830 o         1 MOL     -0.757974
     65 H26        -6.2110   -0.2020   -0.8880 hn        1 MOL      0.245049
     66 H27        -8.3600   -1.7050   -2.1800 h1        1 MOL      0.086123
     67 H28        -6.7110   -1.2190   -3.6900 hc        1 MOL      0.074974
     68 H29        -6.3830   -2.9120   -3.1510 hc        1 MOL      0.074974
     69 N6         -6.8330   -2.6890    0.3940 n         1 MOL     -0.153548
     70 C23        -6.6790   -3.7020    1.4820 c3        1 MOL      0.001028
     71 C24        -5.3750   -4.5200    1.4130 c         1 MOL      0.518900
     72 O13        -5.3410   -5.6460    1.8680 o         1 MOL     -0.593608
     73 H30        -6.4710   -1.7690    0.6070 hn        1 MOL      0.177910
     74 H31        -7.5330   -4.3470    1.6360 h1        1 MOL      0.029482
     75 H32        -6.5760   -3.0360    2.3390 h1        1 MOL      0.029482
     76 N7         -4.2960   -3.9270    0.9540 n         1 MOL     -0.100867
     77 C25        -2.9400   -4.4630    0.9690 c3        1 MOL      0.068281
     78 C26        -1.8700   -3.3330    1.1970 c         1 MOL      0.347850
     79 O14        -2.0410   -2.1210    0.9790 o         1 MOL     -0.433736
     80 C27        -2.6290   -5.2980   -0.3140 c3        1 MOL     -0.097514
     81 C28        -3.1110   -4.7350   -1.6680 c3        1 MOL     -0.075735
     82 C29        -2.0560   -3.8560   -2.3820 c         1 MOL      0.542184
     83 N8         -1.4560   -4.1950   -3.4730 n         1 MOL     -0.662994
     84 O15        -1.8000   -2.7900   -1.8370 o         1 MOL     -0.563358
     85 H33        -4.4350   -2.9770    0.6430 hn        1 MOL      0.042033
     86 H34        -2.9430   -5.1250    1.8320 h1        1 MOL      0.029763
     87 H35        -3.2760   -6.1440   -0.0970 hc        1 MOL      0.033026
     88 H36        -1.6040   -5.6430   -0.3430 hc        1 MOL      0.033026
     89 H37        -4.0630   -4.2070   -1.5560 hc        1 MOL      0.047217
     90 H38        -3.3810   -5.5540   -2.3290 hc        1 MOL      0.047217
     91 H39        -1.6620   -5.0830   -3.9000 hn        1 MOL      0.339207
     92 H40        -0.7320   -3.5490   -3.7860 hn        1 MOL      0.339207
     93 N9         -0.6620   -3.6290    1.5180 n         1 MOL     -0.296283
     94 C30         0.5400   -2.6940    1.6590 c3        1 MOL     -0.128818
     95 C31         1.6340   -3.1780    0.7030 c         1 MOL      0.526303
     96 O16         2.3070   -4.1910    0.9670 o         1 MOL     -0.577058
     97 C32         0.9490   -2.6040    3.1580 c3        1 MOL      0.202555
     98 C33         2.2410   -1.8380    3.5230 c3        1 MOL     -0.259362
     99 C34        -0.2000   -1.9220    3.9430 c3        1 MOL     -0.259362
    100 H41        -0.4530   -4.6100    1.6650 hn        1 MOL      0.242836
    101 H42         0.3660   -1.6640    1.3640 h1        1 MOL      0.204810
    102 H43         1.1330   -3.6010    3.5490 hc        1 MOL     -0.012940
    103 H44         2.3040   -1.8860    4.6190 hc        1 MOL      0.051871
    104 H45         3.1440   -2.2120    3.0380 hc        1 MOL      0.051871
    105 H46         2.1190   -0.7730    3.3150 hc        1 MOL      0.051871
    106 H47        -1.1690   -2.4130    3.8480 hc        1 MOL      0.051871
    107 H48         0.1860   -1.8230    4.9600 hc        1 MOL      0.051871
    108 H49        -0.2880   -0.9090    3.5610 hc        1 MOL      0.051871
    109 N10         1.9400   -2.3690   -0.3220 n         1 MOL     -0.170763
    110 C35         3.0760   -2.4970   -1.1620 c3        1 MOL      0.077614
    111 C36         4.3860   -2.1580   -0.4020 c         1 MOL      0.244907
    112 O17         4.3090   -1.4760    0.6510 o         1 MOL     -0.223650
    113 C37         2.8290   -1.4380   -2.2760 c3        1 MOL     -0.526204
    114 C38         1.7630   -1.8510   -3.2440 c         1 MOL      0.854797
    115 N11         0.7330   -1.0660   -3.5100 n         1 MOL     -0.815888
    116 O18         1.8610   -2.9020   -3.8240 o         1 MOL     -0.627523
    117 H50         1.4660   -1.4800   -0.3600 hn        1 MOL     -0.003646
    118 H51         3.0780   -3.4990   -1.6050 h1        1 MOL      0.075066
    119 H52         3.7860   -1.3810   -2.7850 hc        1 MOL      0.157204
    120 H53         2.5950   -0.4220   -1.9610 hc        1 MOL      0.157204
    121 H54         0.7420   -0.1940   -2.9890 hn        1 MOL      0.370111
    122 H55        -0.0240   -1.3060   -4.1370 hn        1 MOL      0.370111
    123 N12         5.5490   -2.4950   -0.8990 n         1 MOL     -0.358793
    124 C39         6.7890   -2.0050   -0.3250 c3        1 MOL      0.100712
    125 C40         6.9500   -0.3840   -0.2830 c         1 MOL      0.562281
    126 O19         7.3020    0.2010    0.7200 o         1 MOL     -0.512504
    127 C41         7.9490   -2.6430   -0.9920 c3        1 MOL     -0.062616
    128 C42         9.4150   -2.1830   -0.5610 ca        1 MOL     -0.039449
    129 C43        10.0610   -2.7850    0.5330 ca        1 MOL     -0.143191
    130 C44        10.0170   -1.1060   -1.2380 ca        1 MOL     -0.143191
    131 C45        11.3070   -2.3020    1.0170 ca        1 MOL     -0.275281
    132 C46        11.3170   -0.6880   -0.7740 ca        1 MOL     -0.275281
    133 C47        11.9340   -1.2730    0.3360 ca        1 MOL      0.416741
    134 O20        13.1330   -0.8220    0.6670 oh        1 MOL     -0.541832
    135 H56         5.5220   -3.0350   -1.7590 hn        1 MOL      0.282143
    136 H57         6.7200   -2.3470    0.7110 h1        1 MOL      0.074799
    137 H58         7.9520   -2.3650   -2.0490 hc        1 MOL      0.026338
    138 H59         7.7970   -3.7200   -0.9930 hc        1 MOL      0.026338
    139 H60         9.5210   -3.6270    0.9300 ha        1 MOL      0.133552
    140 H61         9.3980   -0.5520   -1.9130 ha        1 MOL      0.133552
    141 H62        11.7960   -2.8590    1.8010 ha        1 MOL      0.139917
    142 H63        11.8050    0.1780   -1.1930 ha        1 MOL      0.139917
    143 H64        13.4290   -0.0290    0.2100 ho        1 MOL      0.384940
    144 N13         6.5090    0.2880   -1.3430 n         1 MOL     -0.382659
    145 C48         6.3450    1.7470   -1.3610 c3        1 MOL     -0.003581
    146 C49         5.4520    2.2400   -0.1810 c         1 MOL      0.274497
    147 O21         5.6500    3.3780    0.2390 o         1 MOL     -0.492330
    148 C50         5.5810    2.0820   -2.7200 c3        1 MOL     -0.053845
    149 C51         5.2170    3.5750   -2.7910 c3        1 MOL     -0.135859
    150 C52         4.9960    4.0430   -4.2360 c         1 MOL      0.699887
    151 O22         3.8110    4.1130   -4.7180 o         1 MOL     -0.726547
    152 O23         5.9590    4.4390   -4.9300 o         1 MOL     -0.726547
    153 H65         6.3680   -0.2230   -2.2040 hn        1 MOL      0.218428
    154 H66         7.3230    2.2220   -1.4230 h1        1 MOL      0.121385
    155 H67         4.7160    1.4460   -2.9130 hc        1 MOL      0.014342
    156 H68         6.3140    2.0570   -3.5300 hc        1 MOL      0.014342
    157 H69         6.0940    4.1060   -2.4150 hc        1 MOL      0.025313
    158 H70         4.3050    3.8140   -2.2380 hc        1 MOL      0.025313
    159 N14         4.4780    1.4830    0.3460 n         1 MOL      0.026257
    160 C53         3.6020    1.8860    1.3820 c3        1 MOL     -0.017023
    161 C54         4.3680    1.5310    2.7090 c         1 MOL      0.336111
    162 O24         4.3530    2.2270    3.7850 o         1 MOL     -0.560007
    163 C55         2.2360    1.2670    1.3560 c3        1 MOL      0.080033
    164 C56         1.4880    1.7390    0.0740 c3        1 MOL      0.028318
    165 C57         0.1810    0.9370   -0.1090 c         1 MOL      0.438266
    166 O25        -0.9730    1.4400    0.1190 o         1 MOL     -0.641875
    167 O26         0.2310   -0.1200   -0.7510 o         1 MOL     -0.641875
    168 H71         4.3470    0.5290    0.0400 hn        1 MOL      0.076993
    169 H72         3.4110    2.9590    1.3650 h1        1 MOL      0.074023
    170 H73         1.7970    1.5920    2.2990 hc        1 MOL      0.036293
    171 H74         2.2170    0.1740    1.3890 hc        1 MOL      0.036293
    172 H75         2.2150    1.6730   -0.7250 hc        1 MOL      0.041607
    173 H76         1.3090    2.8130    0.1930 hc        1 MOL      0.041607
    174 N15         5.0660    0.3780    2.7330 n         1 MOL      0.076330
    175 C58         5.8170   -0.1400    3.8930 c3        1 MOL     -0.158964
    176 H77         5.1300   -0.6450    4.5730 h1        1 MOL      0.058835
    177 H78         6.5730   -0.8460    3.5500 h1        1 MOL      0.058835
    178 H79         6.3010    0.6870    4.4120 h1        1 MOL      0.058835
    179 H80         5.2180   -0.1580    1.8980 hn        1 MOL     -0.058479
    180 Ca1        -2.3480   -0.3520   -1.2410 Ca        1 MOL      1.672573
@<TRIPOS>BOND
     1    1    2 1   
     2    1    4 1   
     3    1    5 1   
     4    1    6 1   
     5    2    3 2   
     6    2    7 1   
     7    7    8 1   
     8    7   15 1   
     9    8    9 1   
    10    8   11 1   
    11    8   16 1   
    12    9   10 2   
    13    9   19 1   
    14   11   12 1   
    15   11   17 1   
    16   11   18 1   
    17   12   13 1   
    18   12   14 1   
    19   19   20 1   
    20   19   27 1   
    21   20   21 1   
    22   20   23 1   
    23   20   28 1   
    24   21   22 2   
    25   21   38 1   
    26   23   24 1   
    27   23   25 1   
    28   23   29 1   
    29   24   26 1   
    30   24   30 1   
    31   24   31 1   
    32   25   32 1   
    33   25   33 1   
    34   25   34 1   
    35   26   35 1   
    36   26   36 1   
    37   26   37 1   
    38   38   39 1   
    39   38   46 1   
    40   39   40 1   
    41   39   42 1   
    42   39   47 1   
    43   40   41 2   
    44   40   50 1   
    45   42   43 1   
    46   42   48 1   
    47   42   49 1   
    48   43   44 1   
    49   43   45 1   
    50   50   51 1   
    51   50   54 1   
    52   51   52 1   
    53   51   55 1   
    54   51   56 1   
    55   52   53 2   
    56   52   57 1   
    57   57   58 1   
    58   57   65 1   
    59   58   59 1   
    60   58   61 1   
    61   58   66 1   
    62   59   60 2   
    63   59   69 1   
    64   61   62 1   
    65   61   67 1   
    66   61   68 1   
    67   62   63 1   
    68   62   64 1   
    69   69   70 1   
    70   69   73 1   
    71   70   71 1   
    72   70   74 1   
    73   70   75 1   
    74   71   72 2   
    75   71   76 1   
    76   76   77 1   
    77   76   85 1   
    78   77   78 1   
    79   77   80 1   
    80   77   86 1   
    81   78   79 2   
    82   78   93 1   
    83   80   81 1   
    84   80   87 1   
    85   80   88 1   
    86   81   82 1   
    87   81   89 1   
    88   81   90 1   
    89   82   83 1   
    90   82   84 2   
    91   83   91 1   
    92   83   92 1   
    93   93   94 1   
    94   93  100 1   
    95   94   95 1   
    96   94   97 1   
    97   94  101 1   
    98   95   96 2   
    99   95  109 1   
   100   97   98 1   
   101   97   99 1   
   102   97  102 1   
   103   98  103 1   
   104   98  104 1   
   105   98  105 1   
   106   99  106 1   
   107   99  107 1   
   108   99  108 1   
   109  109  110 1   
   110  109  117 1   
   111  110  111 1   
   112  110  113 1   
   113  110  118 1   
   114  111  112 2   
   115  111  123 1   
   116  113  114 1   
   117  113  119 1   
   118  113  120 1   
   119  114  115 1   
   120  114  116 2   
   121  115  121 1   
   122  115  122 1   
   123  123  124 1   
   124  123  135 1   
   125  124  125 1   
   126  124  127 1   
   127  124  136 1   
   128  125  126 2   
   129  125  144 1   
   130  127  128 1   
   131  127  137 1   
   132  127  138 1   
   133  128  129 ar  
   134  128  130 ar  
   135  129  131 ar  
   136  129  139 1   
   137  130  132 ar  
   138  130  140 1   
   139  131  133 ar  
   140  131  141 1   
   141  132  133 ar  
   142  132  142 1   
   143  133  134 1   
   144  134  143 1   
   145  144  145 1   
   146  144  153 1   
   147  145  146 1   
   148  145  148 1   
   149  145  154 1   
   150  146  147 2   
   151  146  159 1   
   152  148  149 1   
   153  148  155 1   
   154  148  156 1   
   155  149  150 1   
   156  149  157 1   
   157  149  158 1   
   158  150  151 1   
   159  150  152 1   
   160  159  160 1   
   161  159  168 1   
   162  160  161 1   
   163  160  163 1   
   164  160  169 1   
   165  161  162 2   
   166  161  174 1   
   167  163  164 1   
   168  163  170 1   
   169  163  171 1   
   170  164  165 1   
   171  164  172 1   
   172  164  173 1   
   173  165  166 1   
   174  165  167 1   
   175  174  175 1   
   176  174  179 1   
   177  175  176 1   
   178  175  177 1   
   179  175  178 1   
@<TRIPOS>SUBSTRUCTURE
     1 MOL         1 TEMP              0 ****  ****    0 ROOT
