@<TRIPOS>MOLECULE
MOL
  189   185     1     0     0
SMALL
resp


@<TRIPOS>ATOM
      1 C1         -0.0420   -1.6280    6.1260 c3        1 MOL     -0.475790
      2 C2          0.4710   -1.6390    4.6980 c         1 MOL      0.672988
      3 O1          0.5190   -0.6260    4.0100 o         1 MOL     -0.542492
      4 H1         -0.8860   -0.9420    6.2030 hc        1 MOL      0.127214
      5 H2         -0.3630   -2.6310    6.4050 hc        1 MOL      0.127214
      6 H3          0.7530   -1.3020    6.7960 hc        1 MOL      0.127214
      7 N1          0.8940   -2.7860    4.2480 n         1 MOL     -0.483009
      8 C3          1.6630   -2.9690    3.0040 c3        1 MOL      0.129916
      9 C4          1.4110   -4.3670    2.3340 c         1 MOL      0.531937
     10 O2          1.0350   -5.3120    3.0420 o         1 MOL     -0.596966
     11 C5          3.1330   -2.8520    3.3830 c3        1 MOL     -0.401150
     12 C6          3.9860   -2.7070    2.1140 c         1 MOL      0.727843
     13 O3          5.1780   -2.9940    2.2590 o         1 MOL     -0.645933
     14 O4          3.5290   -2.2350    1.0450 o         1 MOL     -0.645933
     15 H4          0.7200   -3.6150    4.7980 hn        1 MOL      0.293198
     16 H5          1.4700   -2.1190    2.3540 h1        1 MOL      0.057260
     17 H6          3.3630   -3.7520    3.9670 hc        1 MOL      0.093971
     18 H7          3.2890   -1.9270    3.9310 hc        1 MOL      0.093971
     19 N2          1.5160   -4.3520    1.0510 n         1 MOL      0.040947
     20 C7          1.6450   -5.5560    0.2240 c3        1 MOL     -0.198068
     21 C8          2.8420   -5.5200   -0.7070 c         1 MOL      0.407936
     22 O5          3.3060   -6.5640   -1.2740 o         1 MOL     -0.593563
     23 C9          0.3920   -5.9390   -0.6320 c3        1 MOL      0.176416
     24 C10         0.1070   -4.9650   -1.7560 c3        1 MOL      0.065285
     25 C11        -0.7920   -6.2620    0.3050 c3        1 MOL     -0.201465
     26 C12        -0.9890   -5.3610   -2.6770 c3        1 MOL     -0.209693
     27 H8          1.6170   -3.4120    0.6840 hn        1 MOL     -0.201040
     28 H9          1.8150   -6.3920    0.8900 h1        1 MOL      0.105850
     29 H10         0.5920   -6.8850   -1.1330 hc        1 MOL     -0.016000
     30 H11         1.0150   -4.6820   -2.2870 hc        1 MOL      0.026400
     31 H12        -0.2300   -4.0480   -1.2880 hc        1 MOL      0.026400
     32 H13        -1.2110   -5.3130    0.6390 hc        1 MOL      0.043978
     33 H14        -1.5120   -6.9250   -0.1680 hc        1 MOL      0.043978
     34 H15        -0.5020   -6.6980    1.2560 hc        1 MOL      0.043978
     35 H16        -1.0760   -4.7740   -3.5890 hc        1 MOL      0.036843
     36 H17        -0.7030   -6.3750   -2.9940 hc        1 MOL      0.036843
     37 H18        -1.9520   -5.3060   -2.1670 hc        1 MOL      0.036843
     38 N3          3.4470   -4.3710   -0.9460 n         1 MOL     -0.146023
     39 C13         4.3980   -4.2770   -2.1150 c3        1 MOL     -0.061681
     40 C14         5.7530   -3.6290   -1.8130 c         1 MOL      0.324935
     41 O6          6.6770   -3.7360   -2.6540 o         1 MOL     -0.549609
     42 C15         3.7630   -3.4720   -3.2850 c3        1 MOL     -0.084818
     43 C16         3.2890   -2.0310   -2.9800 c         1 MOL      0.702324
     44 O7          3.7470   -1.3670   -2.0080 o         1 MOL     -0.686707
     45 O8          2.4900   -1.5560   -3.8530 o         1 MOL     -0.686707
     46 H19         3.0950   -3.5810   -0.4150 hn        1 MOL      0.249412
     47 H20         4.6550   -5.2940   -2.4020 h1        1 MOL      0.135499
     48 H21         2.9310   -4.0340   -3.7140 hc        1 MOL      0.033143
     49 H22         4.4990   -3.4500   -4.0990 hc        1 MOL      0.033143
     50 N4          5.9890   -3.0110   -0.6410 n         1 MOL      0.009105
     51 C17         7.2230   -2.3310   -0.2360 c3        1 MOL     -0.280978
     52 C18         7.4530   -0.9060   -0.9000 c         1 MOL      0.509985
     53 O9          8.6000   -0.4600   -0.9320 o         1 MOL     -0.582052
     54 H23         5.2060   -3.0320    0.0020 hn        1 MOL      0.012894
     55 H24         8.0370   -3.0000   -0.5380 h1        1 MOL      0.115662
     56 H25         7.1720   -2.2270    0.8470 h1        1 MOL      0.115662
     57 N5          6.4210   -0.2970   -1.5820 n         1 MOL     -0.165975
     58 C19         6.6970    1.0220   -2.2840 c3        1 MOL     -0.209635
     59 C20         7.0030    2.1970   -1.3490 c         1 MOL      0.549011
     60 O10         7.5480    3.1960   -1.8410 o         1 MOL     -0.590133
     61 C21         5.5740    1.3390   -3.3350 c3        1 MOL     -0.078595
     62 C22         4.3060    1.7830   -2.6180 c         1 MOL      0.718479
     63 O11         4.1630    1.5930   -1.4090 o         1 MOL     -0.732582
     64 O12         3.4030    2.3400   -3.3160 o         1 MOL     -0.732582
     65 H26         5.5250   -0.7580   -1.5360 hn        1 MOL      0.174638
     66 H27         7.5970    0.8740   -2.8710 h1        1 MOL      0.120843
     67 H28         5.4370    0.4910   -4.0060 hc        1 MOL      0.053936
     68 H29         5.8860    2.0600   -4.1040 hc        1 MOL      0.053936
     69 N6          6.5920    2.1320   -0.1040 n         1 MOL     -0.264166
     70 C23         6.7820    3.2580    0.8460 c3        1 MOL     -0.276082
     71 C24         5.5780    4.1450    1.1520 c         1 MOL      0.607412
     72 O13         5.7600    4.9850    2.0150 o         1 MOL     -0.610116
     73 H30         6.0090    1.3750    0.2080 hn        1 MOL      0.229862
     74 H31         7.5930    3.9030    0.5030 h1        1 MOL      0.116934
     75 H32         7.0360    2.7600    1.7860 h1        1 MOL      0.116934
     76 N7          4.4550    3.9220    0.4790 n         1 MOL     -0.326434
     77 C25         3.1290    4.5650    0.6740 c3        1 MOL      0.042360
     78 C26         2.0790    3.4680    1.1160 c         1 MOL      0.390511
     79 O14         2.0310    2.4380    0.3710 o         1 MOL     -0.524157
     80 C27         2.7060    5.3880   -0.5690 c3        1 MOL     -0.062578
     81 C28         3.3880    6.7730   -0.6410 c3        1 MOL     -0.440507
     82 C29         2.8110    7.7260   -1.6830 c         1 MOL      0.716130
     83 N8          2.9010    7.5100   -2.9860 n         1 MOL     -0.796685
     84 O15         2.3310    8.8540   -1.4210 o         1 MOL     -0.602475
     85 H33         4.4970    3.1100   -0.1190 hn        1 MOL      0.258520
     86 H34         3.2270    5.3090    1.4620 h1        1 MOL      0.044003
     87 H35         1.6190    5.3380   -0.5350 hc        1 MOL      0.086731
     88 H36         2.8640    4.7490   -1.4380 hc        1 MOL      0.086731
     89 H37         4.4650    6.6410   -0.8010 hc        1 MOL      0.154437
     90 H38         3.4400    7.2320    0.3420 hc        1 MOL      0.154437
     91 H39         3.3340    6.6720   -3.3550 hn        1 MOL      0.364840
     92 H40         2.6550    8.2520   -3.6310 hn        1 MOL      0.364840
     93 N9          1.2360    3.7370    2.1500 n         1 MOL     -0.466303
     94 C30         0.0240    3.0110    2.3590 c3        1 MOL     -0.089433
     95 C31        -0.9790    3.3960    1.2010 c         1 MOL      0.532570
     96 O16        -1.5030    4.5180    1.1610 o         1 MOL     -0.591098
     97 C32        -0.4580    3.2510    3.7890 c3        1 MOL      0.134701
     98 C33        -1.6960    2.2980    4.0110 c3        1 MOL     -0.328950
     99 C34         0.6570    2.9770    4.8400 c3        1 MOL     -0.328950
    100 H41         1.2430    4.6990    2.4680 hn        1 MOL      0.344299
    101 H42         0.2440    1.9520    2.2860 h1        1 MOL      0.092840
    102 H43        -0.6730    4.3150    3.9210 hc        1 MOL      0.028091
    103 H44        -2.2450    2.4420    4.9490 hc        1 MOL      0.081431
    104 H45        -2.3790    2.3470    3.1620 hc        1 MOL      0.081431
    105 H46        -1.3720    1.2640    4.1100 hc        1 MOL      0.081431
    106 H47         1.3240    3.8340    4.6900 hc        1 MOL      0.081431
    107 H48         0.2710    3.0330    5.8640 hc        1 MOL      0.081431
    108 H49         1.0120    1.9550    4.7930 hc        1 MOL      0.081431
    109 N10        -1.1980    2.4450    0.2810 n         1 MOL     -0.071461
    110 C35        -2.3240    2.5330   -0.7070 c3        1 MOL      0.010199
    111 C36        -3.6760    2.2650   -0.0900 c         1 MOL      0.143253
    112 O17        -3.8770    1.5780    0.8440 o         1 MOL     -0.147759
    113 C37        -2.0100    1.6140   -1.8340 c3        1 MOL     -0.171248
    114 C38        -2.9220    1.5540   -2.9670 c         1 MOL      0.727601
    115 N11        -3.1680    2.6700   -3.6910 n         1 MOL     -0.825485
    116 O18        -3.4160    0.4930   -3.2290 o         1 MOL     -0.494906
    117 H50        -0.7710    1.5460    0.4900 hn        1 MOL      0.064701
    118 H51        -2.2980    3.6100   -0.9320 h1        1 MOL      0.041581
    119 H52        -2.0160    0.6100   -1.4190 hc        1 MOL      0.066147
    120 H53        -0.9770    1.7310   -2.1680 hc        1 MOL      0.066147
    121 H54        -2.8000    3.5560   -3.3780 hn        1 MOL      0.356992
    122 H55        -3.7620    2.6500   -4.5070 hn        1 MOL      0.356992
    123 N12        -4.7190    2.8110   -0.7050 n         1 MOL     -0.273620
    124 C39        -6.1040    2.3870   -0.3940 c3        1 MOL      0.123822
    125 C40        -6.2340    0.8780   -0.1970 c         1 MOL      0.750659
    126 O19        -6.8540    0.3780    0.6910 o         1 MOL     -0.634147
    127 C41        -7.1230    2.8920   -1.3830 c3        1 MOL     -0.315384
    128 C42        -8.4920    2.2320   -1.2530 ca        1 MOL      0.320806
    129 C43        -9.4340    2.9100   -0.4140 ca        1 MOL     -0.404477
    130 C44        -8.9140    1.1340   -2.0010 ca        1 MOL     -0.404477
    131 C45       -10.7150    2.3620   -0.2070 ca        1 MOL     -0.051602
    132 C46       -10.2000    0.6770   -1.9300 ca        1 MOL     -0.051602
    133 C47       -11.1340    1.2690   -1.0190 ca        1 MOL      0.163011
    134 O20       -12.3960    0.7600   -0.8210 oh        1 MOL     -0.540826
    135 H56        -4.5910    3.4780   -1.4540 hn        1 MOL      0.218954
    136 H57        -6.3710    2.8160    0.5710 h1        1 MOL      0.013651
    137 H58        -6.7910    2.6730   -2.3980 hc        1 MOL      0.075288
    138 H59        -7.2600    3.9650   -1.2690 hc        1 MOL      0.075288
    139 H60        -9.0550    3.8380    0.0050 ha        1 MOL      0.173177
    140 H61        -8.2720    0.7030   -2.7550 ha        1 MOL      0.173177
    141 H62       -11.3870    2.8020    0.5190 ha        1 MOL      0.116148
    142 H63       -10.5650   -0.2190   -2.4160 ha        1 MOL      0.116148
    143 H64       -12.6100    0.1040   -1.4800 ho        1 MOL      0.412412
    144 N13        -5.6920    0.0200   -1.0430 n         1 MOL     -0.016044
    145 C48        -5.7400   -1.4600   -0.9560 c3        1 MOL     -0.356937
    146 C49        -5.1420   -2.0110    0.3610 c         1 MOL      0.460544
    147 O21        -5.2770   -3.1460    0.6750 o         1 MOL     -0.484718
    148 C50        -5.0840   -2.0840   -2.1800 c3        1 MOL      0.282709
    149 C51        -5.5110   -3.5250   -2.4350 c3        1 MOL     -0.392635
    150 C52        -6.9100   -3.5860   -2.9260 c         1 MOL      0.696197
    151 O22        -7.1590   -3.1560   -4.1220 o         1 MOL     -0.744793
    152 O23        -7.8270   -3.9360   -2.1530 o         1 MOL     -0.744793
    153 H65        -4.9810    0.4620   -1.6130 hn        1 MOL     -0.046372
    154 H66        -6.7780   -1.7770   -0.9590 h1        1 MOL      0.237025
    155 H67        -4.0090   -2.0420   -2.0130 hc        1 MOL     -0.030299
    156 H68        -5.1240   -1.3880   -3.0250 hc        1 MOL     -0.030299
    157 H69        -5.3390   -4.1540   -1.5630 hc        1 MOL      0.087073
    158 H70        -4.8640   -3.8570   -3.2490 hc        1 MOL      0.087073
    159 N14        -4.3180   -1.1590    1.0630 n         1 MOL     -0.272929
    160 C53        -3.4710   -1.5310    2.1480 c3        1 MOL     -0.023544
    161 C54        -3.9730   -0.8920    3.4450 c         1 MOL      0.516401
    162 O24        -3.8580   -1.4700    4.5380 o         1 MOL     -0.591054
    163 C55        -2.1050   -1.0480    1.9370 c3        1 MOL     -0.086424
    164 C56        -1.4960   -1.6030    0.6460 c3        1 MOL     -0.085925
    165 C57        -0.0700   -1.1030    0.2610 c         1 MOL      0.539920
    166 O25         0.8530   -1.8890   -0.1800 o         1 MOL     -0.601342
    167 O26         0.1520    0.0920    0.4720 o         1 MOL     -0.601342
    168 H71        -4.1790   -0.1890    0.8020 hn        1 MOL      0.147233
    169 H72        -3.4330   -2.6210    2.2280 h1        1 MOL      0.061956
    170 H73        -1.4730   -1.2410    2.7970 hc        1 MOL      0.069326
    171 H74        -2.1850    0.0390    1.8470 hc        1 MOL      0.069326
    172 H75        -2.0730   -1.4980   -0.2780 hc        1 MOL      0.084811
    173 H76        -1.4210   -2.6870    0.7930 hc        1 MOL      0.084811
    174 N15        -4.6290    0.2680    3.3250 n         1 MOL     -0.153344
    175 C58        -5.2480    1.0150    4.4100 c3        1 MOL     -0.043150
    176 H77        -5.9940    1.6970    4.0020 h1        1 MOL      0.037278
    177 H78        -5.7300    0.3210    5.1000 h1        1 MOL      0.037278
    178 H79        -4.4870    1.5850    4.9400 h1        1 MOL      0.037278
    179 H80        -4.4990    0.7740    2.4530 hn        1 MOL      0.021525
    180 Ca1         2.7920   -0.0460    0.0100 Ca        1 MOL      1.755907
    181 O27         2.4780    0.4670    2.7420 oh        1 MOL     -0.796414
    182 H81         2.9570    0.8330    3.4880 ho        1 MOL      0.394444
    183 H82         1.6090    0.2750    3.0900 ho        1 MOL      0.394444
    184 O28         1.5610    0.5190   -2.2910 oh        1 MOL     -0.796414
    185 H83         1.7620    0.0050   -3.0650 ho        1 MOL      0.394444
    186 H84         1.8030    1.4200   -2.5240 ho        1 MOL      0.394444
    187 O29         5.2120    0.0030    1.3300 oh        1 MOL     -0.796414
    188 H85         5.7640   -0.7390    1.5670 ho        1 MOL      0.394444
    189 H86         4.9840    0.4180    2.1660 ho        1 MOL      0.394444
@<TRIPOS>BOND
     1    1    2 1   
     2    1    4 1   
     3    1    5 1   
     4    1    6 1   
     5    2    3 2   
     6    2    7 1   
     7    7    8 1   
     8    7   15 1   
     9    8    9 1   
    10    8   11 1   
    11    8   16 1   
    12    9   10 2   
    13    9   19 1   
    14   11   12 1   
    15   11   17 1   
    16   11   18 1   
    17   12   13 1   
    18   12   14 1   
    19   19   20 1   
    20   19   27 1   
    21   20   21 1   
    22   20   23 1   
    23   20   28 1   
    24   21   22 2   
    25   21   38 1   
    26   23   24 1   
    27   23   25 1   
    28   23   29 1   
    29   24   26 1   
    30   24   30 1   
    31   24   31 1   
    32   25   32 1   
    33   25   33 1   
    34   25   34 1   
    35   26   35 1   
    36   26   36 1   
    37   26   37 1   
    38   38   39 1   
    39   38   46 1   
    40   39   40 1   
    41   39   42 1   
    42   39   47 1   
    43   40   41 2   
    44   40   50 1   
    45   42   43 1   
    46   42   48 1   
    47   42   49 1   
    48   43   44 1   
    49   43   45 1   
    50   50   51 1   
    51   50   54 1   
    52   51   52 1   
    53   51   55 1   
    54   51   56 1   
    55   52   53 2   
    56   52   57 1   
    57   57   58 1   
    58   57   65 1   
    59   58   59 1   
    60   58   61 1   
    61   58   66 1   
    62   59   60 2   
    63   59   69 1   
    64   61   62 1   
    65   61   67 1   
    66   61   68 1   
    67   62   63 1   
    68   62   64 1   
    69   69   70 1   
    70   69   73 1   
    71   70   71 1   
    72   70   74 1   
    73   70   75 1   
    74   71   72 2   
    75   71   76 1   
    76   76   77 1   
    77   76   85 1   
    78   77   78 1   
    79   77   80 1   
    80   77   86 1   
    81   78   79 2   
    82   78   93 1   
    83   80   81 1   
    84   80   87 1   
    85   80   88 1   
    86   81   82 1   
    87   81   89 1   
    88   81   90 1   
    89   82   83 1   
    90   82   84 2   
    91   83   91 1   
    92   83   92 1   
    93   93   94 1   
    94   93  100 1   
    95   94   95 1   
    96   94   97 1   
    97   94  101 1   
    98   95   96 2   
    99   95  109 1   
   100   97   98 1   
   101   97   99 1   
   102   97  102 1   
   103   98  103 1   
   104   98  104 1   
   105   98  105 1   
   106   99  106 1   
   107   99  107 1   
   108   99  108 1   
   109  109  110 1   
   110  109  117 1   
   111  110  111 1   
   112  110  113 1   
   113  110  118 1   
   114  111  112 2   
   115  111  123 1   
   116  113  114 1   
   117  113  119 1   
   118  113  120 1   
   119  114  115 1   
   120  114  116 2   
   121  115  121 1   
   122  115  122 1   
   123  123  124 1   
   124  123  135 1   
   125  124  125 1   
   126  124  127 1   
   127  124  136 1   
   128  125  126 2   
   129  125  144 1   
   130  127  128 1   
   131  127  137 1   
   132  127  138 1   
   133  128  129 ar  
   134  128  130 ar  
   135  129  131 ar  
   136  129  139 1   
   137  130  132 ar  
   138  130  140 1   
   139  131  133 ar  
   140  131  141 1   
   141  132  133 ar  
   142  132  142 1   
   143  133  134 1   
   144  134  143 1   
   145  144  145 1   
   146  144  153 1   
   147  145  146 1   
   148  145  148 1   
   149  145  154 1   
   150  146  147 2   
   151  146  159 1   
   152  148  149 1   
   153  148  155 1   
   154  148  156 1   
   155  149  150 1   
   156  149  157 1   
   157  149  158 1   
   158  150  151 1   
   159  150  152 1   
   160  159  160 1   
   161  159  168 1   
   162  160  161 1   
   163  160  163 1   
   164  160  169 1   
   165  161  162 2   
   166  161  174 1   
   167  163  164 1   
   168  163  170 1   
   169  163  171 1   
   170  164  165 1   
   171  164  172 1   
   172  164  173 1   
   173  165  166 1   
   174  165  167 1   
   175  174  175 1   
   176  174  179 1   
   177  175  176 1   
   178  175  177 1   
   179  175  178 1   
   180  181  182 1   
   181  181  183 1   
   182  184  185 1   
   183  184  186 1   
   184  187  188 1   
   185  187  189 1   
@<TRIPOS>SUBSTRUCTURE
     1 MOL         1 TEMP              0 ****  ****    0 ROOT
