@<TRIPOS>MOLECULE
MOL
  183   181     1     0     0
SMALL
resp


@<TRIPOS>ATOM
      1 C1         -0.1950    2.5190    6.1130 c3        1 MOL     -0.329198
      2 C2         -0.6430    2.4690    4.6610 c         1 MOL      0.871020
      3 O1         -0.0150    3.0080    3.7940 o         1 MOL     -0.628166
      4 H1          0.2900    3.4750    6.3100 hc        1 MOL      0.067906
      5 H2         -1.0610    2.4090    6.7650 hc        1 MOL      0.067906
      6 H3          0.5090    1.7090    6.3040 hc        1 MOL      0.067906
      7 N1         -1.8540    1.9320    4.4080 n         1 MOL     -0.747865
      8 C3         -2.4230    1.8200    3.0360 c3        1 MOL      0.118448
      9 C4         -2.9070    3.1150    2.3960 c         1 MOL      0.650612
     10 O2         -3.7450    3.8850    2.9430 o         1 MOL     -0.591421
     11 C5         -3.6140    0.7790    3.0660 c3        1 MOL     -0.197188
     12 C6         -4.2910    0.5610    1.7970 c         1 MOL      0.732864
     13 O3         -5.4280    0.0030    1.7460 o         1 MOL     -0.698416
     14 O4         -3.6640    0.8170    0.7280 o         1 MOL     -0.698416
     15 H4         -2.4670    1.5820    5.1200 hn        1 MOL      0.354828
     16 H5         -1.7070    1.3930    2.3330 h1        1 MOL      0.068846
     17 H6         -4.3090    1.0280    3.8790 hc        1 MOL      0.043966
     18 H7         -3.1220   -0.1550    3.3630 hc        1 MOL      0.043966
     19 N2         -2.3860    3.3780    1.1450 n         1 MOL     -0.487188
     20 C7         -2.5600    4.7530    0.6040 c3        1 MOL     -0.048961
     21 C8         -3.8590    4.8530   -0.1760 c         1 MOL      0.537668
     22 O5         -4.4600    5.9370   -0.2200 o         1 MOL     -0.609458
     23 C9         -1.2910    5.1210   -0.1690 c3        1 MOL      0.450700
     24 C10        -0.0230    5.2110    0.8320 c3        1 MOL     -0.041710
     25 C11        -1.4380    6.5080   -0.7840 c3        1 MOL     -0.463523
     26 C12         1.3940    5.4980    0.2340 c3        1 MOL     -0.071013
     27 H8         -1.9550    2.6300    0.6210 hn        1 MOL      0.143421
     28 H9         -2.6240    5.4870    1.4060 h1        1 MOL      0.053822
     29 H10        -1.2050    4.3580   -0.9310 hc        1 MOL     -0.046404
     30 H11         0.0970    4.2260    1.2790 hc        1 MOL      0.008440
     31 H12        -0.2180    6.0460    1.4970 hc        1 MOL      0.008440
     32 H13        -2.0190    7.1280   -0.1100 hc        1 MOL      0.086253
     33 H14        -0.4940    7.0040   -1.0010 hc        1 MOL      0.086253
     34 H15        -1.9520    6.3470   -1.7350 hc        1 MOL      0.086253
     35 H16         1.4460    4.9140   -0.6850 hc        1 MOL      0.008340
     36 H17         1.5600    6.5280   -0.1050 hc        1 MOL      0.008340
     37 H18         2.1950    5.1590    0.8840 hc        1 MOL      0.008340
     38 N3         -4.3020    3.7600   -0.7650 n         1 MOL     -0.310220
     39 C13        -5.3080    3.6770   -1.8510 c3        1 MOL     -0.034735
     40 C14        -6.4110    2.5870   -1.5080 c         1 MOL      0.371495
     41 O6         -7.1790    2.1480   -2.4140 o         1 MOL     -0.508940
     42 C15        -4.6060    3.3950   -3.2380 c3        1 MOL     -0.141969
     43 C16        -3.6440    2.2320   -3.2970 c         1 MOL      0.719618
     44 O7         -2.9450    2.0700   -4.3300 o         1 MOL     -0.691451
     45 O8         -3.5050    1.4130   -2.3080 o         1 MOL     -0.691451
     46 H19        -3.7390    2.9260   -0.6540 hn        1 MOL      0.264364
     47 H20        -5.8800    4.5980   -1.8310 h1        1 MOL      0.091774
     48 H21        -3.9630    4.2250   -3.5000 hc        1 MOL      0.043999
     49 H22        -5.2800    3.4480   -4.0910 hc        1 MOL      0.043999
     50 N4         -6.4680    2.1510   -0.2730 n         1 MOL     -0.120730
     51 C17        -7.7270    1.6720    0.3530 c3        1 MOL     -0.237591
     52 C18        -8.2290    0.2840   -0.1750 c         1 MOL      0.593262
     53 O9         -9.4160    0.1810   -0.4160 o         1 MOL     -0.611096
     54 H23        -5.8410    2.5470    0.4120 hn        1 MOL      0.211793
     55 H24        -8.5610    2.3260    0.0870 h1        1 MOL      0.092076
     56 H25        -7.5350    1.6610    1.4210 h1        1 MOL      0.092076
     57 N5         -7.3290   -0.6680   -0.3600 n         1 MOL     -0.393722
     58 C19        -7.5290   -1.9410   -1.0400 c3        1 MOL      0.236239
     59 C20        -7.1870   -3.0770   -0.0440 c         1 MOL      0.408377
     60 O10        -7.3680   -4.2060   -0.3440 o         1 MOL     -0.554101
     61 C21        -6.5770   -2.0310   -2.2530 c3        1 MOL     -0.103122
     62 C22        -5.0620   -1.8890   -1.9180 c         1 MOL      0.777405
     63 O11        -4.2250   -1.6780   -2.7970 o         1 MOL     -0.769871
     64 O12        -4.6410   -1.9470   -0.7500 o         1 MOL     -0.769871
     65 H26        -6.4200   -0.3840   -0.0170 hn        1 MOL      0.184493
     66 H27        -8.5710   -2.1210   -1.3330 h1        1 MOL      0.032182
     67 H28        -6.9910   -1.3450   -2.9870 hc        1 MOL      0.009862
     68 H29        -6.8130   -3.0340   -2.6230 hc        1 MOL      0.009862
     69 N6         -6.8200   -2.7400    1.1690 n         1 MOL     -0.366885
     70 C23        -6.5320   -3.6640    2.2530 c3        1 MOL     -0.002106
     71 C24        -5.1240   -4.3540    2.2430 c         1 MOL      0.468310
     72 O13        -4.9950   -5.3480    2.9740 o         1 MOL     -0.608049
     73 H30        -6.6050   -1.7650    1.3100 hn        1 MOL      0.251396
     74 H31        -7.2420   -4.4910    2.2190 h1        1 MOL      0.055537
     75 H32        -6.6760   -3.2790    3.2660 h1        1 MOL      0.055537
     76 N7         -4.1880   -3.9090    1.4300 n         1 MOL     -0.233371
     77 C25        -2.8400   -4.4850    1.4320 c3        1 MOL     -0.019325
     78 C26        -1.9130   -3.3190    1.3930 c         1 MOL      0.600458
     79 O14        -2.2740   -2.1540    1.1190 o         1 MOL     -0.657041
     80 C27        -2.6080   -5.3940    0.2320 c3        1 MOL      0.058071
     81 C28        -2.6910   -5.0250   -1.3050 c3        1 MOL     -0.286543
     82 C29        -1.5010   -4.1820   -1.7900 c         1 MOL      0.604070
     83 N8         -0.6170   -4.6950   -2.6100 n         1 MOL     -0.725138
     84 O15        -1.4150   -2.9870   -1.5830 o         1 MOL     -0.508635
     85 H33        -4.4490   -3.2180    0.7320 hn        1 MOL      0.333895
     86 H34        -2.5880   -4.9710    2.3650 h1        1 MOL      0.058069
     87 H35        -3.4030   -6.1210    0.3640 hc        1 MOL     -0.005894
     88 H36        -1.7150   -6.0020    0.3630 hc        1 MOL     -0.005894
     89 H37        -3.6100   -4.4460   -1.3680 hc        1 MOL      0.095664
     90 H38        -2.6660   -5.9940   -1.8070 hc        1 MOL      0.095664
     91 H39        -0.6980   -5.6870   -2.7870 hn        1 MOL      0.341550
     92 H40         0.1690   -4.0860   -2.7940 hn        1 MOL      0.341550
     93 N9         -0.6460   -3.6860    1.4870 n         1 MOL     -0.428389
     94 C30         0.4620   -2.7500    1.6030 c3        1 MOL     -0.008981
     95 C31         1.6960   -3.1520    0.7490 c         1 MOL      0.407182
     96 O16         2.4410   -4.0730    1.1530 o         1 MOL     -0.577078
     97 C32         0.9340   -2.5620    3.0630 c3        1 MOL      0.264287
     98 C33         2.1820   -1.7290    3.2640 c3        1 MOL     -0.233002
     99 C34        -0.1840   -1.8130    3.7790 c3        1 MOL     -0.233002
    100 H41        -0.3640   -4.6360    1.6780 hn        1 MOL      0.281496
    101 H42         0.0800   -1.7820    1.2940 h1        1 MOL      0.090632
    102 H43         1.0320   -3.5630    3.4960 hc        1 MOL     -0.046148
    103 H44         1.9830   -0.6600    3.1570 hc        1 MOL      0.038965
    104 H45         2.6090   -1.9860    4.2380 hc        1 MOL      0.038965
    105 H46         3.0210   -2.0710    2.6430 hc        1 MOL      0.038965
    106 H47         0.1320   -1.7340    4.8180 hc        1 MOL      0.038965
    107 H48        -0.4160   -0.8470    3.3320 hc        1 MOL      0.038965
    108 H49        -1.0420   -2.4780    3.7750 hc        1 MOL      0.038965
    109 N10         1.9300   -2.5320   -0.4020 n         1 MOL     -0.066747
    110 C35         3.2120   -2.5720   -1.1450 c3        1 MOL      0.025749
    111 C36         4.3250   -1.9000   -0.4120 c         1 MOL      0.351387
    112 O17         4.0960   -1.1480    0.5330 o         1 MOL     -0.234822
    113 C37         3.0780   -1.8530   -2.5140 c3        1 MOL     -0.125131
    114 C38         2.1230   -2.5460   -3.4590 c         1 MOL      0.653650
    115 N11         1.1880   -1.8090   -4.0100 n         1 MOL     -0.749909
    116 O18         2.0950   -3.7170   -3.6330 o         1 MOL     -0.584628
    117 H50         1.2380   -1.8300   -0.6390 hn        1 MOL     -0.036103
    118 H51         3.4590   -3.5960   -1.4240 h1        1 MOL      0.039245
    119 H52         4.0850   -1.8100   -2.9540 hc        1 MOL      0.021507
    120 H53         2.8110   -0.8030   -2.3980 hc        1 MOL      0.021507
    121 H54         1.0890   -0.8240   -3.8500 hn        1 MOL      0.364261
    122 H55         0.5400   -2.3630   -4.5630 hn        1 MOL      0.364261
    123 N12         5.5480   -2.2160   -0.8230 n         1 MOL     -0.446106
    124 C39         6.8070   -1.7580   -0.2510 c3        1 MOL      0.029440
    125 C40         6.9720   -0.2520   -0.1710 c         1 MOL      0.584410
    126 O19         7.3810    0.2060    0.8760 o         1 MOL     -0.514209
    127 C41         8.0230   -2.3580   -0.9780 c3        1 MOL     -0.144830
    128 C42         9.3100   -1.7560   -0.4920 ca        1 MOL     -0.136937
    129 C43         9.8190   -2.2740    0.7540 ca        1 MOL     -0.007757
    130 C44         9.9300   -0.7060   -1.1740 ca        1 MOL     -0.007757
    131 C45        11.0960   -1.8960    1.2170 ca        1 MOL     -0.363066
    132 C46        11.1870   -0.2560   -0.6300 ca        1 MOL     -0.363066
    133 C47        11.6990   -0.7720    0.5680 ca        1 MOL      0.434148
    134 O20        12.8970   -0.2770    1.0690 oh        1 MOL     -0.532853
    135 H56         5.6100   -2.8750   -1.5760 hn        1 MOL      0.308925
    136 H57         6.7590   -2.0430    0.7960 h1        1 MOL      0.090037
    137 H58         7.7860   -2.3100   -2.0370 hc        1 MOL      0.068421
    138 H59         8.0980   -3.4370   -0.8410 hc        1 MOL      0.068421
    139 H60         9.3110   -3.0330    1.3410 ha        1 MOL      0.114182
    140 H61         9.5520   -0.3270   -2.1180 ha        1 MOL      0.114182
    141 H62        11.5530   -2.2260    2.1400 ha        1 MOL      0.164930
    142 H63        11.7380    0.5050   -1.1580 ha        1 MOL      0.164930
    143 H64        13.3410    0.3750    0.5230 ho        1 MOL      0.360214
    144 N13         6.6020    0.5260   -1.2100 n         1 MOL     -0.343511
    145 C48         6.4620    2.0070   -1.1910 c3        1 MOL      0.011347
    146 C49         5.5060    2.4780   -0.0140 c         1 MOL      0.283043
    147 O21         5.6260    3.6290    0.4770 o         1 MOL     -0.497696
    148 C50         6.0700    2.5080   -2.5700 c3        1 MOL      0.027729
    149 C51         4.5820    2.3470   -2.8020 c3        1 MOL     -0.230374
    150 C52         4.2490    2.3290   -4.3530 c         1 MOL      0.719973
    151 O22         3.5520    3.2580   -4.7740 o         1 MOL     -0.732761
    152 O23         4.6940    1.4220   -5.0870 o         1 MOL     -0.732761
    153 H65         6.3220    0.0070   -2.0350 hn        1 MOL      0.236907
    154 H66         7.4720    2.3850   -1.0320 h1        1 MOL      0.047150
    155 H67         6.6660    1.9160   -3.2760 hc        1 MOL      0.001147
    156 H68         6.3800    3.5400   -2.6910 hc        1 MOL      0.001147
    157 H69         4.0410    3.2300   -2.4580 hc        1 MOL      0.084453
    158 H70         4.2340    1.3860   -2.4300 hc        1 MOL      0.084453
    159 N14         4.4920    1.6680    0.3420 n         1 MOL     -0.107551
    160 C53         3.5290    2.0060    1.3990 c3        1 MOL     -0.213670
    161 C54         4.1430    1.5850    2.7800 c         1 MOL      0.463886
    162 O24         3.9870    2.3540    3.7640 o         1 MOL     -0.579602
    163 C55         2.1460    1.2510    1.1500 c3        1 MOL     -0.015434
    164 C56         1.4810    1.6180   -0.2240 c3        1 MOL      0.221726
    165 C57         0.0990    0.9660   -0.3730 c         1 MOL      0.507745
    166 O25        -0.8990    1.6340   -0.6990 o         1 MOL     -0.562666
    167 O26        -0.0210   -0.2650   -0.4530 o         1 MOL     -0.562666
    168 H71         4.4130    0.7340   -0.0410 hn        1 MOL      0.172367
    169 H72         3.3720    3.0850    1.3630 h1        1 MOL      0.175926
    170 H73         1.4890    1.6060    1.9430 hc        1 MOL      0.056531
    171 H74         2.3010    0.1780    1.2440 hc        1 MOL      0.056531
    172 H75         2.0960    1.3830   -1.0990 hc        1 MOL     -0.070765
    173 H76         1.3330    2.6960   -0.3120 hc        1 MOL     -0.070765
    174 N15         4.9850    0.6050    2.7710 n         1 MOL      0.027078
    175 C58         5.7710    0.2590    3.9460 c3        1 MOL     -0.260799
    176 H77         6.1260    1.1720    4.4270 h1        1 MOL      0.086549
    177 H78         5.1510   -0.3010    4.6460 h1        1 MOL      0.086549
    178 H79         6.6240   -0.3490    3.6470 h1        1 MOL      0.086549
    179 H80         5.0490    0.0980    1.9000 hn        1 MOL      0.014616
    180 Ca1        -2.4620   -0.5500   -1.0420 Ca        1 MOL      1.663618
    181 O27        -1.2750   -0.2140   -3.6400 oh        1 MOL     -0.765206
    182 H81        -1.8130    0.5630   -3.8320 ho        1 MOL      0.374012
    183 H82        -1.4850   -0.8240   -4.3510 ho        1 MOL      0.374012
@<TRIPOS>BOND
     1    1    2 1   
     2    1    4 1   
     3    1    5 1   
     4    1    6 1   
     5    2    3 2   
     6    2    7 1   
     7    7    8 1   
     8    7   15 1   
     9    8    9 1   
    10    8   11 1   
    11    8   16 1   
    12    9   10 2   
    13    9   19 1   
    14   11   12 1   
    15   11   17 1   
    16   11   18 1   
    17   12   13 1   
    18   12   14 1   
    19   19   20 1   
    20   19   27 1   
    21   20   21 1   
    22   20   23 1   
    23   20   28 1   
    24   21   22 2   
    25   21   38 1   
    26   23   24 1   
    27   23   25 1   
    28   23   29 1   
    29   24   26 1   
    30   24   30 1   
    31   24   31 1   
    32   25   32 1   
    33   25   33 1   
    34   25   34 1   
    35   26   35 1   
    36   26   36 1   
    37   26   37 1   
    38   38   39 1   
    39   38   46 1   
    40   39   40 1   
    41   39   42 1   
    42   39   47 1   
    43   40   41 2   
    44   40   50 1   
    45   42   43 1   
    46   42   48 1   
    47   42   49 1   
    48   43   44 1   
    49   43   45 1   
    50   50   51 1   
    51   50   54 1   
    52   51   52 1   
    53   51   55 1   
    54   51   56 1   
    55   52   53 2   
    56   52   57 1   
    57   57   58 1   
    58   57   65 1   
    59   58   59 1   
    60   58   61 1   
    61   58   66 1   
    62   59   60 2   
    63   59   69 1   
    64   61   62 1   
    65   61   67 1   
    66   61   68 1   
    67   62   63 1   
    68   62   64 1   
    69   69   70 1   
    70   69   73 1   
    71   70   71 1   
    72   70   74 1   
    73   70   75 1   
    74   71   72 2   
    75   71   76 1   
    76   76   77 1   
    77   76   85 1   
    78   77   78 1   
    79   77   80 1   
    80   77   86 1   
    81   78   79 2   
    82   78   93 1   
    83   80   81 1   
    84   80   87 1   
    85   80   88 1   
    86   81   82 1   
    87   81   89 1   
    88   81   90 1   
    89   82   83 1   
    90   82   84 2   
    91   83   91 1   
    92   83   92 1   
    93   93   94 1   
    94   93  100 1   
    95   94   95 1   
    96   94   97 1   
    97   94  101 1   
    98   95   96 2   
    99   95  109 1   
   100   97   98 1   
   101   97   99 1   
   102   97  102 1   
   103   98  103 1   
   104   98  104 1   
   105   98  105 1   
   106   99  106 1   
   107   99  107 1   
   108   99  108 1   
   109  109  110 1   
   110  109  117 1   
   111  110  111 1   
   112  110  113 1   
   113  110  118 1   
   114  111  112 2   
   115  111  123 1   
   116  113  114 1   
   117  113  119 1   
   118  113  120 1   
   119  114  115 1   
   120  114  116 2   
   121  115  121 1   
   122  115  122 1   
   123  123  124 1   
   124  123  135 1   
   125  124  125 1   
   126  124  127 1   
   127  124  136 1   
   128  125  126 2   
   129  125  144 1   
   130  127  128 1   
   131  127  137 1   
   132  127  138 1   
   133  128  129 ar  
   134  128  130 ar  
   135  129  131 ar  
   136  129  139 1   
   137  130  132 ar  
   138  130  140 1   
   139  131  133 ar  
   140  131  141 1   
   141  132  133 ar  
   142  132  142 1   
   143  133  134 1   
   144  134  143 1   
   145  144  145 1   
   146  144  153 1   
   147  145  146 1   
   148  145  148 1   
   149  145  154 1   
   150  146  147 2   
   151  146  159 1   
   152  148  149 1   
   153  148  155 1   
   154  148  156 1   
   155  149  150 1   
   156  149  157 1   
   157  149  158 1   
   158  150  151 1   
   159  150  152 1   
   160  159  160 1   
   161  159  168 1   
   162  160  161 1   
   163  160  163 1   
   164  160  169 1   
   165  161  162 2   
   166  161  174 1   
   167  163  164 1   
   168  163  170 1   
   169  163  171 1   
   170  164  165 1   
   171  164  172 1   
   172  164  173 1   
   173  165  166 1   
   174  165  167 1   
   175  174  175 1   
   176  174  179 1   
   177  175  176 1   
   178  175  177 1   
   179  175  178 1   
   180  181  182 1   
   181  181  183 1   
@<TRIPOS>SUBSTRUCTURE
     1 MOL         1 TEMP              0 ****  ****    0 ROOT
