@<TRIPOS>MOLECULE
MOL
  179   176     1     0     0
SMALL
resp


@<TRIPOS>ATOM
      1 C1          1.9370    3.5440    4.0360 c3        1 MOL     -0.514333
      2 C2          1.2170    3.1430    2.7450 c         1 MOL      0.484900
      3 O1          1.6550    3.2450    1.5840 o         1 MOL     -0.520060
      4 H1          1.4580    3.0560    4.8850 hc        1 MOL      0.142566
      5 H2          2.9810    3.2360    3.9820 hc        1 MOL      0.142566
      6 H3          1.8830    4.6250    4.1620 hc        1 MOL      0.142566
      7 N1         -0.0660    2.8110    2.9660 n         1 MOL     -0.388216
      8 C3         -1.0630    2.4950    1.9760 c3        1 MOL      0.190425
      9 C4         -1.8210    3.7870    1.6550 c         1 MOL      0.360262
     10 O2         -2.9430    3.9370    2.0990 o         1 MOL     -0.447258
     11 C5         -1.9270    1.3710    2.4870 c3        1 MOL     -0.129543
     12 C6         -3.0100    0.9890    1.4440 c         1 MOL      0.514477
     13 O3         -4.2250    0.7480    1.7150 o         1 MOL     -0.626577
     14 O4         -2.5610    0.9900    0.2860 o         1 MOL     -0.626577
     15 H4         -0.3680    2.8850    3.9240 hn        1 MOL      0.272371
     16 H5         -0.5900    2.2130    1.0340 h1        1 MOL      0.067619
     17 H6         -2.3660    1.5840    3.4680 hc        1 MOL      0.039360
     18 H7         -1.2960    0.4940    2.3940 hc        1 MOL      0.039360
     19 N2         -1.2370    4.6990    0.8370 n         1 MOL     -0.395865
     20 C7         -1.8870    6.0110    0.4830 c3        1 MOL      0.014743
     21 C8         -2.8660    5.9150   -0.6640 c         1 MOL      0.381792
     22 O5         -3.6440    6.8250   -0.8580 o         1 MOL     -0.540127
     23 C9         -0.8100    7.0680    0.0720 c3        1 MOL     -0.108055
     24 C10        -0.0930    7.6950    1.2250 c3        1 MOL      0.146933
     25 C11         1.1360    8.5500    0.9290 c3        1 MOL     -0.312324
     26 C12         2.3030    7.6960    0.4810 c3        1 MOL      0.100730
     27 N3          3.2870    7.2320    1.5270 n4        1 MOL     -0.414429
     28 H8         -0.2760    4.6110    0.5370 hn        1 MOL      0.319709
     29 H9         -2.4850    6.3770    1.3140 h1        1 MOL      0.115726
     30 H10        -1.2820    7.8590   -0.5200 hc        1 MOL      0.060319
     31 H11        -0.1090    6.5660   -0.5910 hc        1 MOL      0.060319
     32 H12         0.0880    6.9500    2.0020 hc        1 MOL     -0.007568
     33 H13        -0.7820    8.3460    1.7780 hc        1 MOL     -0.007568
     34 H14         1.3700    9.1470    1.8130 hc        1 MOL      0.127182
     35 H15         0.9190    9.1640    0.0470 hc        1 MOL      0.127182
     36 H16         2.9540    8.2450   -0.1900 hx        1 MOL      0.076743
     37 H17         1.9160    6.8030   -0.0030 hx        1 MOL      0.076743
     38 H18         2.9200    6.8390    2.3810 hn        1 MOL      0.339510
     39 H19         3.7930    6.4210    1.1840 hn        1 MOL      0.339510
     40 H20         3.9100    8.0030    1.6950 hn        1 MOL      0.339510
     41 N4         -2.8990    4.8650   -1.4520 n         1 MOL     -0.173061
     42 C13        -3.9190    4.5220   -2.4280 c3        1 MOL     -0.009791
     43 C14        -5.2030    3.9100   -1.8200 c         1 MOL      0.464214
     44 O6         -6.2610    3.9300   -2.4180 o         1 MOL     -0.531938
     45 C15        -3.2290    3.6150   -3.4340 c3        1 MOL     -0.272880
     46 C16        -2.4490    2.4470   -2.8460 c         1 MOL      0.720189
     47 O7         -1.3510    2.6310   -2.2430 o         1 MOL     -0.722162
     48 O8         -2.9040    1.2490   -2.9700 o         1 MOL     -0.722162
     49 H21        -2.2200    4.1280   -1.3100 hn        1 MOL      0.150320
     50 H22        -4.2760    5.4260   -2.9130 h1        1 MOL      0.099950
     51 H23        -2.6540    4.1990   -4.1400 hc        1 MOL      0.088053
     52 H24        -4.0410    3.1290   -3.9690 hc        1 MOL      0.088053
     53 N5         -5.1230    3.3050   -0.5970 n         1 MOL     -0.067959
     54 C17        -6.2280    2.8840    0.2400 c3        1 MOL     -0.447120
     55 C18        -6.6950    1.4500    0.0340 c         1 MOL      0.667206
     56 O9         -7.7010    1.0480    0.5960 o         1 MOL     -0.591668
     57 H25        -4.2200    3.2580   -0.1570 hn        1 MOL      0.149818
     58 H26        -7.0860    3.4260   -0.1600 h1        1 MOL      0.178444
     59 H27        -5.9930    3.1300    1.2780 h1        1 MOL      0.178444
     60 N6         -5.9720    0.6920   -0.7890 n         1 MOL     -0.348812
     61 C19        -6.3320   -0.6440   -1.2490 c3        1 MOL      0.054636
     62 C20        -6.2290   -1.7410   -0.2070 c         1 MOL      0.247487
     63 O10        -6.5400   -2.8890   -0.5590 o         1 MOL     -0.468428
     64 C21        -5.5440   -1.0660   -2.5160 c3        1 MOL     -0.319115
     65 C22        -4.0900   -1.5610   -2.3430 c         1 MOL      0.775126
     66 N7         -3.5390   -2.0380   -3.4420 n         1 MOL     -0.849491
     67 O11        -3.5090   -1.4430   -1.2790 o         1 MOL     -0.700500
     68 H28        -5.1020    1.0920   -1.0990 hn        1 MOL      0.216011
     69 H29        -7.3660   -0.6390   -1.6040 h1        1 MOL      0.108435
     70 H30        -5.5280   -0.2000   -3.1670 hc        1 MOL      0.095682
     71 H31        -6.1130   -1.8760   -2.9710 hc        1 MOL      0.095682
     72 H32        -4.1230   -2.3410   -4.2010 hn        1 MOL      0.378309
     73 H33        -2.5310   -2.0470   -3.4800 hn        1 MOL      0.378309
     74 N8         -5.7310   -1.4120    0.9820 n         1 MOL     -0.013021
     75 C23        -5.8170   -2.4070    2.0520 c3        1 MOL     -0.366349
     76 C24        -4.4770   -3.1600    2.3180 c         1 MOL      0.681524
     77 O12        -4.1940   -3.5500    3.4740 o         1 MOL     -0.601295
     78 H34        -5.3250   -0.5170    1.1850 hn        1 MOL      0.252536
     79 H35        -6.5540   -3.1850    1.8650 h1        1 MOL      0.145279
     80 H36        -6.0210   -1.8820    2.9850 h1        1 MOL      0.145279
     81 N9         -3.5150   -3.1280    1.3670 n         1 MOL     -0.484437
     82 C25        -2.1660   -3.6740    1.3960 c3        1 MOL      0.082161
     83 C26        -0.9860   -2.6940    1.1250 c         1 MOL      0.781465
     84 O13        -1.0580   -1.8740    0.2480 o         1 MOL     -0.719604
     85 C27        -2.1360   -4.7920    0.3150 c3        1 MOL      0.011961
     86 C28        -3.2880   -5.7970    0.3170 ca        1 MOL      0.117197
     87 C29        -4.4750   -5.5050   -0.3150 ca        1 MOL     -0.303623
     88 C30        -3.1480   -7.0570    0.9660 ca        1 MOL     -0.303623
     89 C31        -5.6080   -6.3180   -0.1760 ca        1 MOL     -0.117845
     90 C32        -4.2630   -7.9370    1.0230 ca        1 MOL     -0.117845
     91 C33        -5.4460   -7.5960    0.3550 ca        1 MOL      0.226991
     92 O14        -6.4730   -8.4770    0.5130 oh        1 MOL     -0.445254
     93 H37        -3.6740   -2.8410    0.4150 hn        1 MOL      0.439680
     94 H38        -2.0110   -4.2170    2.3300 h1        1 MOL      0.049356
     95 H39        -1.2460   -5.3960    0.4810 hc        1 MOL     -0.000248
     96 H40        -1.9230   -4.3590   -0.6650 hc        1 MOL     -0.000248
     97 H41        -4.5750   -4.5500   -0.7960 ha        1 MOL      0.146855
     98 H42        -2.1810   -7.2750    1.3970 ha        1 MOL      0.146855
     99 H43        -6.5800   -5.9700   -0.4820 ha        1 MOL      0.122783
    100 H44        -4.1630   -8.8900    1.5240 ha        1 MOL      0.122783
    101 H45        -6.0850   -9.2560    0.9020 ho        1 MOL      0.326207
    102 N10         0.1010   -2.8890    1.8560 n         1 MOL     -0.798506
    103 C34         1.3530   -2.1930    1.6600 c3        1 MOL      0.140175
    104 C35         2.3430   -3.1320    0.8200 c         1 MOL      0.597122
    105 O15         2.6250   -4.2430    1.1990 o         1 MOL     -0.572071
    106 C36         1.9950   -1.7110    2.9520 c3        1 MOL      0.111522
    107 C37         0.9890   -1.2870    4.0370 c3        1 MOL      0.369310
    108 C38         3.1030   -0.7040    2.6570 c3        1 MOL     -0.383484
    109 C39         1.7610   -1.2090    5.3980 c3        1 MOL     -0.281259
    110 H46         0.0610   -3.6790    2.4970 hn        1 MOL      0.348933
    111 H47         1.1050   -1.2290    1.2090 h1        1 MOL      0.091698
    112 H48         2.5080   -2.5840    3.3720 hc        1 MOL     -0.022438
    113 H49         0.2230   -2.0230    4.2680 hc        1 MOL     -0.074431
    114 H50         0.4890   -0.3160    3.9470 hc        1 MOL     -0.074431
    115 H51         3.7020   -0.4370    3.5220 hc        1 MOL      0.086623
    116 H52         3.7110   -1.0970    1.8400 hc        1 MOL      0.086623
    117 H53         2.5780    0.1810    2.2850 hc        1 MOL      0.086623
    118 H54         2.4990   -0.3950    5.3590 hc        1 MOL      0.054408
    119 H55         0.9710   -1.0140    6.1190 hc        1 MOL      0.054408
    120 H56         2.3180   -2.1110    5.6310 hc        1 MOL      0.054408
    121 N11         2.8860   -2.7260   -0.2980 n         1 MOL     -0.260626
    122 C40         3.9830   -3.3940   -1.0200 c3        1 MOL      0.151083
    123 C41         5.3570   -3.1160   -0.3780 c         1 MOL      0.315227
    124 O16         5.6030   -2.2580    0.5340 o         1 MOL     -0.339823
    125 C42         4.0440   -3.0730   -2.5210 c3        1 MOL     -0.374611
    126 O17         4.8450   -1.8690   -2.6480 oh        1 MOL     -0.355750
    127 H57         2.6260   -1.8190   -0.6720 hn        1 MOL      0.061906
    128 H58         3.9080   -4.4800   -0.9770 h1        1 MOL      0.060791
    129 H59         3.0440   -2.9820   -2.9460 h1        1 MOL      0.172779
    130 H60         4.6110   -3.8620   -3.0170 h1        1 MOL      0.172779
    131 H61         4.8910   -1.6640   -3.5900 ho        1 MOL      0.368034
    132 N12         6.3830   -3.8510   -0.7800 n         1 MOL     -0.345539
    133 C43         7.7900   -3.5730   -0.3900 c3        1 MOL      0.110404
    134 C44         8.2990   -2.1700   -0.7130 c         1 MOL      0.472321
    135 O18         8.8870   -1.5090    0.1120 o         1 MOL     -0.504342
    136 C45         8.7260   -4.6440   -0.9620 c3        1 MOL     -0.236542
    137 H62         6.2210   -4.5520   -1.4900 hn        1 MOL      0.270596
    138 H63         7.7620   -3.7560    0.6810 h1        1 MOL      0.081919
    139 H64         8.3110   -5.6330   -0.7800 hc        1 MOL      0.070770
    140 H65         8.8100   -4.4430   -2.0340 hc        1 MOL      0.070770
    141 H66         9.7260   -4.5350   -0.5410 hc        1 MOL      0.070770
    142 N13         7.9920   -1.6800   -1.9430 n         1 MOL     -0.291363
    143 C46         8.3540   -0.3900   -2.3740 c3        1 MOL      0.062470
    144 C47         7.6200    0.7420   -1.4860 c         1 MOL      0.335093
    145 O19         8.1520    1.8120   -1.2250 o         1 MOL     -0.498549
    146 C48         8.1300   -0.2240   -3.8660 c3        1 MOL     -0.168694
    147 H67         7.4800   -2.2630   -2.5870 hn        1 MOL      0.203326
    148 H68         9.4200   -0.3800   -2.1520 h1        1 MOL      0.087092
    149 H69         8.5470   -1.0770   -4.4050 hc        1 MOL      0.051901
    150 H70         7.0590   -0.1790   -4.0540 hc        1 MOL      0.051901
    151 H71         8.7170    0.5920   -4.2680 hc        1 MOL      0.051901
    152 N14         6.3720    0.4300   -1.0260 n         1 MOL      0.014204
    153 C49         5.5810    1.3050   -0.1880 c3        1 MOL     -0.130745
    154 C50         6.0450    1.3100    1.2930 c         1 MOL      0.445770
    155 O20         5.9270    2.3020    2.0170 o         1 MOL     -0.564927
    156 C51         4.1560    0.8910   -0.2590 c3        1 MOL      0.023030
    157 C52         3.3440    1.1540   -1.5010 c3        1 MOL     -0.001446
    158 C53         1.8990    0.4900   -1.4010 c         1 MOL      0.730256
    159 O21         1.0420    1.1180   -0.7740 o         1 MOL     -0.736177
    160 O22         1.6440   -0.5110   -2.0840 o         1 MOL     -0.736177
    161 H72         6.0220   -0.5070   -1.1930 hn        1 MOL     -0.047729
    162 H73         5.6770    2.3120   -0.5940 h1        1 MOL      0.087180
    163 H74         3.6680    1.4370    0.5500 hc        1 MOL      0.058218
    164 H75         4.0560   -0.1540    0.0110 hc        1 MOL      0.058218
    165 H76         3.8600    0.8070   -2.3950 hc        1 MOL     -0.032956
    166 H77         3.1800    2.2180   -1.6230 hc        1 MOL     -0.032956
    167 N15         6.6110    0.1440    1.7700 n         1 MOL     -0.067527
    168 C54         7.3340    0.1080    3.1050 c3        1 MOL     -0.248902
    169 H78         6.6100   -0.0420    3.9060 h1        1 MOL      0.103134
    170 H79         8.0530   -0.7120    3.1090 h1        1 MOL      0.103134
    171 H80         7.8590    1.0500    3.2610 h1        1 MOL      0.103134
    172 H81         6.5000   -0.7000    1.2190 hn        1 MOL      0.101483
    173 Ca1        -1.1840   -0.0100   -1.6240 Ca        1 MOL      1.744398
    174 O23        -0.8330   -2.4530   -2.7940 oh        1 MOL     -0.768044
    175 H82        -0.5010   -3.0930   -2.1600 ho        1 MOL      0.387705
    176 H83        -0.4610   -2.7320   -3.6250 ho        1 MOL      0.387705
    177 O24        -0.5460    0.3410   -4.2970 oh        1 MOL     -0.768044
    178 H84        -1.0310    0.3800   -5.1180 ho        1 MOL      0.387705
    179 H85         0.3130   -0.0170   -4.5440 ho        1 MOL      0.387705
@<TRIPOS>BOND
     1    1    2 1   
     2    1    4 1   
     3    1    5 1   
     4    1    6 1   
     5    2    3 2   
     6    2    7 1   
     7    7    8 1   
     8    7   15 1   
     9    8    9 1   
    10    8   11 1   
    11    8   16 1   
    12    9   10 2   
    13    9   19 1   
    14   11   12 1   
    15   11   17 1   
    16   11   18 1   
    17   12   13 1   
    18   12   14 1   
    19   19   20 1   
    20   19   28 1   
    21   20   21 1   
    22   20   23 1   
    23   20   29 1   
    24   21   22 2   
    25   21   41 1   
    26   23   24 1   
    27   23   30 1   
    28   23   31 1   
    29   24   25 1   
    30   24   32 1   
    31   24   33 1   
    32   25   26 1   
    33   25   34 1   
    34   25   35 1   
    35   26   27 1   
    36   26   36 1   
    37   26   37 1   
    38   27   38 1   
    39   27   39 1   
    40   27   40 1   
    41   41   42 1   
    42   41   49 1   
    43   42   43 1   
    44   42   45 1   
    45   42   50 1   
    46   43   44 2   
    47   43   53 1   
    48   45   46 1   
    49   45   51 1   
    50   45   52 1   
    51   46   47 1   
    52   46   48 1   
    53   53   54 1   
    54   53   57 1   
    55   54   55 1   
    56   54   58 1   
    57   54   59 1   
    58   55   56 2   
    59   55   60 1   
    60   60   61 1   
    61   60   68 1   
    62   61   62 1   
    63   61   64 1   
    64   61   69 1   
    65   62   63 2   
    66   62   74 1   
    67   64   65 1   
    68   64   70 1   
    69   64   71 1   
    70   65   66 1   
    71   65   67 2   
    72   66   72 1   
    73   66   73 1   
    74   74   75 1   
    75   74   78 1   
    76   75   76 1   
    77   75   79 1   
    78   75   80 1   
    79   76   77 2   
    80   76   81 1   
    81   81   82 1   
    82   81   93 1   
    83   82   83 1   
    84   82   85 1   
    85   82   94 1   
    86   83   84 2   
    87   83  102 1   
    88   85   86 1   
    89   85   95 1   
    90   85   96 1   
    91   86   87 ar  
    92   86   88 ar  
    93   87   89 ar  
    94   87   97 1   
    95   88   90 ar  
    96   88   98 1   
    97   89   91 ar  
    98   89   99 1   
    99   90   91 ar  
   100   90  100 1   
   101   91   92 1   
   102   92  101 1   
   103  102  103 1   
   104  102  110 1   
   105  103  104 1   
   106  103  106 1   
   107  103  111 1   
   108  104  105 2   
   109  104  121 1   
   110  106  107 1   
   111  106  108 1   
   112  106  112 1   
   113  107  109 1   
   114  107  113 1   
   115  107  114 1   
   116  108  115 1   
   117  108  116 1   
   118  108  117 1   
   119  109  118 1   
   120  109  119 1   
   121  109  120 1   
   122  121  122 1   
   123  121  127 1   
   124  122  123 1   
   125  122  125 1   
   126  122  128 1   
   127  123  124 2   
   128  123  132 1   
   129  125  126 1   
   130  125  129 1   
   131  125  130 1   
   132  126  131 1   
   133  132  133 1   
   134  132  137 1   
   135  133  134 1   
   136  133  136 1   
   137  133  138 1   
   138  134  135 2   
   139  134  142 1   
   140  136  139 1   
   141  136  140 1   
   142  136  141 1   
   143  142  143 1   
   144  142  147 1   
   145  143  144 1   
   146  143  146 1   
   147  143  148 1   
   148  144  145 2   
   149  144  152 1   
   150  146  149 1   
   151  146  150 1   
   152  146  151 1   
   153  152  153 1   
   154  152  161 1   
   155  153  154 1   
   156  153  156 1   
   157  153  162 1   
   158  154  155 2   
   159  154  167 1   
   160  156  157 1   
   161  156  163 1   
   162  156  164 1   
   163  157  158 1   
   164  157  165 1   
   165  157  166 1   
   166  158  159 1   
   167  158  160 1   
   168  167  168 1   
   169  167  172 1   
   170  168  169 1   
   171  168  170 1   
   172  168  171 1   
   173  174  175 1   
   174  174  176 1   
   175  177  178 1   
   176  177  179 1   
@<TRIPOS>SUBSTRUCTURE
     1 MOL         1 TEMP              0 ****  ****    0 ROOT
