@<TRIPOS>MOLECULE
MOL
  189   185     1     0     0
SMALL
resp


@<TRIPOS>ATOM
      1 C1         -0.7060    1.2600    6.6070 c3        1 MOL     -0.419352
      2 C2         -0.8040    1.2140    5.0570 c         1 MOL      0.723385
      3 O1          0.2170    1.3660    4.3250 o         1 MOL     -0.630515
      4 H1         -1.6860    1.0600    7.0390 hc        1 MOL      0.111155
      5 H2          0.0020    0.5060    6.9500 hc        1 MOL      0.111155
      6 H3         -0.3660    2.2470    6.9210 hc        1 MOL      0.111155
      7 N1         -2.0070    1.1110    4.5250 n         1 MOL     -0.609598
      8 C3         -2.3930    1.2220    3.1460 c3        1 MOL      0.197747
      9 C4         -2.4320    2.7430    2.7910 c         1 MOL      0.443212
     10 O2         -3.2260    3.5180    3.3960 o         1 MOL     -0.553129
     11 C5         -3.7760    0.5850    2.8070 c3        1 MOL     -0.294727
     12 C6         -4.2020    0.7950    1.3320 c         1 MOL      0.841564
     13 O3         -5.3610    0.6300    1.0130 o         1 MOL     -0.621593
     14 O4         -3.3110    1.0630    0.4920 o         1 MOL     -0.621593
     15 H4         -2.7670    0.9590    5.1660 hn        1 MOL      0.341075
     16 H5         -1.6070    0.6840    2.6170 h1        1 MOL     -0.022549
     17 H6         -4.5150    0.9880    3.5040 hc        1 MOL      0.068619
     18 H7         -3.7930   -0.4630    3.0920 hc        1 MOL      0.068619
     19 N2         -1.7410    3.1050    1.6960 n         1 MOL     -0.057179
     20 C7         -1.2970    4.5360    1.4270 c3        1 MOL     -0.195331
     21 C8         -1.8380    5.1400    0.1280 c         1 MOL      0.494928
     22 O5         -2.0690    6.3340    0.0550 o         1 MOL     -0.571176
     23 C9          0.2350    4.4740    1.2380 c3        1 MOL      0.115873
     24 C10         0.8370    5.8900    1.2900 c3        1 MOL     -0.217775
     25 C11         2.3320    5.8920    1.6080 c3        1 MOL     -0.059808
     26 C12         2.8720    7.2680    1.3920 c3        1 MOL      0.182968
     27 N3          4.2980    7.3940    1.8220 n4        1 MOL     -0.445288
     28 H8         -1.2150    2.3650    1.2500 hn        1 MOL      0.047497
     29 H9         -1.4860    5.2480    2.2350 h1        1 MOL      0.111681
     30 H10         0.5290    3.9190    0.3500 hc        1 MOL      0.047306
     31 H11         0.5850    3.9520    2.1210 hc        1 MOL      0.047306
     32 H12         0.3480    6.3890    2.1210 hc        1 MOL      0.086871
     33 H13         0.6210    6.3320    0.3110 hc        1 MOL      0.086871
     34 H14         2.8750    5.1060    1.0940 hc        1 MOL      0.046045
     35 H15         2.4610    5.7050    2.6810 hc        1 MOL      0.046045
     36 H16         2.2040    7.9910    1.8390 hx        1 MOL      0.042773
     37 H17         2.7720    7.4420    0.3190 hx        1 MOL      0.042773
     38 H18         4.3930    7.4880    2.8280 hn        1 MOL      0.340666
     39 H19         4.7740    6.5570    1.5230 hn        1 MOL      0.340666
     40 H20         4.8470    8.0970    1.3270 hn        1 MOL      0.340666
     41 N4         -2.1640    4.2850   -0.8410 n         1 MOL     -0.184385
     42 C13        -2.8980    4.6590   -2.0750 c3        1 MOL     -0.075356
     43 C14        -4.3860    4.3190   -1.9910 c         1 MOL      0.519158
     44 O6         -5.2330    4.9090   -2.6580 o         1 MOL     -0.539419
     45 C15        -2.2430    4.0880   -3.3330 c3        1 MOL     -0.190283
     46 C16        -1.9380    2.6060   -3.2420 c         1 MOL      0.787715
     47 O7         -2.6880    1.8040   -2.5400 o         1 MOL     -0.717352
     48 O8         -0.9000    2.1850   -3.7890 o         1 MOL     -0.717352
     49 H21        -1.8820    3.3190   -0.7520 hn        1 MOL      0.112136
     50 H22        -2.8690    5.7350   -2.2110 h1        1 MOL      0.097683
     51 H23        -1.3050    4.5580   -3.6040 hc        1 MOL      0.056680
     52 H24        -2.9140    4.1780   -4.1790 hc        1 MOL      0.056680
     53 N5         -4.7900    3.4700   -1.0270 n         1 MOL     -0.118456
     54 C17        -6.1800    3.2130   -0.7580 c3        1 MOL     -0.149402
     55 C18        -6.8090    2.1290   -1.6520 c         1 MOL      0.574503
     56 O9         -7.6900    2.3390   -2.4950 o         1 MOL     -0.555725
     57 H25        -4.1460    2.9640   -0.4350 hn        1 MOL      0.102585
     58 H26        -6.7680    4.1300   -0.7940 h1        1 MOL      0.071751
     59 H27        -6.2910    2.8120    0.2490 h1        1 MOL      0.071751
     60 N6         -6.3010    0.8910   -1.5460 n         1 MOL     -0.294405
     61 C19        -6.8460   -0.2590   -2.2560 c3        1 MOL      0.041889
     62 C20        -7.2280   -1.4260   -1.3520 c         1 MOL      0.474069
     63 O10        -7.6180   -2.5120   -1.7550 o         1 MOL     -0.581336
     64 C21        -5.9160   -0.7830   -3.3070 c3        1 MOL     -0.099651
     65 C22        -4.5150   -1.0380   -2.9030 c         1 MOL      0.690643
     66 O11        -3.5340   -0.8870   -3.7160 o         1 MOL     -0.693381
     67 O12        -4.3070   -1.3480   -1.7520 o         1 MOL     -0.693381
     68 H28        -5.7010    0.7850   -0.7390 hn        1 MOL      0.062497
     69 H29        -7.8110    0.0350   -2.6730 h1        1 MOL      0.080344
     70 H30        -5.9590   -0.0960   -4.1510 hc        1 MOL      0.041042
     71 H31        -6.3370   -1.6690   -3.7930 hc        1 MOL      0.041042
     72 N7         -7.1060   -1.2470   -0.0610 n         1 MOL     -0.292089
     73 C23        -7.1920   -2.2360    0.8920 c3        1 MOL     -0.038543
     74 C24        -6.0470   -3.2150    1.1010 c         1 MOL      0.409830
     75 O13        -6.1070   -3.9290    2.1470 o         1 MOL     -0.564169
     76 H32        -6.5760   -0.3910    0.0860 hn        1 MOL      0.208836
     77 H33        -8.1050   -2.7890    0.6770 h1        1 MOL      0.078595
     78 H34        -7.4380   -1.8210    1.8690 h1        1 MOL      0.078595
     79 N8         -4.9880   -3.1930    0.2660 n         1 MOL     -0.149268
     80 C25        -3.8590   -4.1160    0.5320 c3        1 MOL      0.067573
     81 C26        -2.5720   -3.3390    0.7020 c         1 MOL      0.499673
     82 O14        -2.5600   -2.1240    0.5170 o         1 MOL     -0.679087
     83 C27        -3.5960   -5.1260   -0.5990 c3        1 MOL      0.239900
     84 C28        -4.6190   -6.3080   -0.5740 c3        1 MOL     -0.441639
     85 O15        -3.7410   -4.4650   -1.8310 oh        1 MOL     -0.591470
     86 H35        -5.0010   -2.6090   -0.5610 hn        1 MOL      0.190315
     87 H36        -4.0160   -4.7000    1.4400 h1        1 MOL      0.051365
     88 H37        -2.5780   -5.5190   -0.5460 h1        1 MOL      0.069115
     89 H38        -4.6670   -4.2770   -1.9720 ho        1 MOL      0.424542
     90 H39        -4.2310   -7.0410   -1.2810 hc        1 MOL      0.118349
     91 H40        -4.7780   -6.6830    0.4410 hc        1 MOL      0.118349
     92 H41        -5.5460   -5.9250   -0.9770 hc        1 MOL      0.118349
     93 N9         -1.4200   -3.9990    1.0320 n         1 MOL     -0.365197
     94 C29        -0.0790   -3.5010    1.3290 c3        1 MOL      0.199037
     95 C30         0.9000   -3.9320    0.2220 c         1 MOL      0.249519
     96 O16         0.9700   -5.1370    0.0360 o         1 MOL     -0.537705
     97 C31         0.3080   -3.9190    2.7870 c3        1 MOL      0.174175
     98 C32        -0.7260   -3.5430    3.9180 c3        1 MOL     -0.334877
     99 C33         1.7260   -3.4360    3.2860 c3        1 MOL     -0.220260
    100 C34        -1.1900   -2.0440    3.8660 c3        1 MOL     -0.148490
    101 H42        -1.4920   -5.0030    1.1240 hn        1 MOL      0.210821
    102 H43        -0.1190   -2.4120    1.3120 h1        1 MOL     -0.030233
    103 H44         0.3080   -5.0040    2.8140 hc        1 MOL     -0.007518
    104 H45        -0.1870   -3.8590    4.8080 hc        1 MOL      0.098053
    105 H46        -1.4970   -4.2880    3.7350 hc        1 MOL      0.098053
    106 H47         1.8760   -2.3580    3.3800 hc        1 MOL      0.043233
    107 H48         1.9560   -3.9530    4.2190 hc        1 MOL      0.043233
    108 H49         2.4080   -3.8080    2.5260 hc        1 MOL      0.043233
    109 H50        -2.0760   -1.8160    4.4450 hc        1 MOL      0.081013
    110 H51        -0.3710   -1.4230    4.2270 hc        1 MOL      0.081013
    111 H52        -1.5610   -1.7480    2.8870 hc        1 MOL      0.081013
    112 N10         1.7080   -3.0330   -0.3060 n         1 MOL      0.084243
    113 C35         2.8630   -3.2830   -1.1640 c3        1 MOL     -0.005050
    114 C36         4.2280   -2.9350   -0.4860 c         1 MOL      0.090327
    115 O17         4.3350   -2.2770    0.5550 o         1 MOL      0.045878
    116 C37         2.7410   -2.4870   -2.4650 c3        1 MOL      0.289631
    117 C38         1.6380   -2.9460   -3.3970 c3        1 MOL     -0.416580
    118 O18         2.5380   -1.1870   -2.0840 oh        1 MOL     -0.540550
    119 H53         1.3620   -2.0960   -0.1620 hn        1 MOL      0.128075
    120 H54         2.9180   -4.3320   -1.4400 h1        1 MOL      0.060796
    121 H55         3.7240   -2.5170   -2.9460 h1        1 MOL      0.012312
    122 H56         1.6680   -1.1310   -1.6650 ho        1 MOL      0.284028
    123 H57         1.8560   -3.9700   -3.6840 hc        1 MOL      0.109730
    124 H58         0.7240   -2.9250   -2.7950 hc        1 MOL      0.109730
    125 H59         1.5450   -2.2440   -4.2210 hc        1 MOL      0.109730
    126 N11         5.3590   -3.2190   -1.1120 n         1 MOL     -0.176876
    127 C39         6.6870   -2.9580   -0.5990 c3        1 MOL     -0.157176
    128 C40         7.0330   -1.5840   -0.1630 c         1 MOL      0.353453
    129 O19         7.5250   -1.4290    0.9690 o         1 MOL     -0.496670
    130 C41         7.8190   -3.4620   -1.5210 c3        1 MOL      0.246524
    131 C42         8.0630   -4.9560   -1.4100 c3        1 MOL     -0.289497
    132 O20         7.4870   -3.2030   -2.8790 oh        1 MOL     -0.628076
    133 H60         5.4080   -3.4940   -2.0760 hn        1 MOL      0.271587
    134 H61         6.8270   -3.4650    0.3640 h1        1 MOL      0.142267
    135 H62         8.7480   -2.9570   -1.2430 h1        1 MOL      0.054364
    136 H63         8.3380   -3.1380   -3.3260 ho        1 MOL      0.408398
    137 H64         8.5750   -5.1260   -0.4580 hc        1 MOL      0.085563
    138 H65         7.1090   -5.4940   -1.4350 hc        1 MOL      0.085563
    139 H66         8.7900   -5.2710   -2.1530 hc        1 MOL      0.085563
    140 N12         6.5150   -0.5830   -0.8450 n         1 MOL     -0.236421
    141 C43         6.5590    0.8840   -0.4850 c3        1 MOL     -0.070759
    142 C44         5.5090    1.3100    0.6030 c         1 MOL      0.517765
    143 O21         5.4890    2.4210    1.1250 o         1 MOL     -0.614576
    144 C45         6.3630    1.6420   -1.8640 c3        1 MOL     -0.180709
    145 C46         7.4620    1.5370   -2.9010 c3        1 MOL      0.069332
    146 C47         8.6020    2.4810   -2.5200 c3        1 MOL     -0.052801
    147 C48         9.4740    2.7250   -3.7790 c3        1 MOL      0.081201
    148 N13        10.8570    3.1490   -3.4770 n4        1 MOL     -0.158747
    149 H67         5.9310   -0.7500   -1.6560 hn        1 MOL      0.243031
    150 H68         7.4990    1.1880   -0.0240 h1        1 MOL      0.099343
    151 H69         6.1870    2.6810   -1.5970 hc        1 MOL      0.087626
    152 H70         5.3780    1.3970   -2.2580 hc        1 MOL      0.087626
    153 H71         6.9480    1.7990   -3.8280 hc        1 MOL      0.019986
    154 H72         7.8730    0.5360   -3.0200 hc        1 MOL      0.019986
    155 H73         9.2280    1.9970   -1.7700 hc        1 MOL      0.029106
    156 H74         8.3080    3.4500   -2.0990 hc        1 MOL      0.029106
    157 H75         9.0200    3.4390   -4.4640 hx        1 MOL      0.049448
    158 H76         9.4970    1.7570   -4.2710 hx        1 MOL      0.049448
    159 H77        11.2990    2.4050   -2.9710 hn        1 MOL      0.223765
    160 H78        11.5130    3.3650   -4.2130 hn        1 MOL      0.223765
    161 H79        10.9210    3.9740   -2.9070 hn        1 MOL      0.223765
    162 N14         4.7040    0.3310    0.9650 n         1 MOL     -0.006224
    163 C49         3.8100    0.4880    2.1790 c3        1 MOL      0.004426
    164 C50         4.1840   -0.4150    3.4160 c         1 MOL      0.333052
    165 O22         4.1760   -0.0090    4.6040 o         1 MOL     -0.510538
    166 C51         2.3370    0.1780    1.7900 c3        1 MOL      0.023442
    167 C52         1.8600    1.0550    0.6240 c3        1 MOL     -0.047129
    168 C53         0.4900    0.6520    0.0300 c         1 MOL      0.643204
    169 O23         0.3720   -0.5340   -0.2970 o         1 MOL     -0.616543
    170 O24        -0.4360    1.4890   -0.1900 o         1 MOL     -0.616543
    171 H80         4.8710   -0.6020    0.6110 hn        1 MOL     -0.131340
    172 H81         3.8420    1.5060    2.5670 h1        1 MOL      0.065604
    173 H82         1.6690    0.3820    2.6300 hc        1 MOL      0.078354
    174 H83         2.2020   -0.8640    1.4940 hc        1 MOL      0.078354
    175 H84         2.6290    1.0870   -0.1500 hc        1 MOL     -0.038435
    176 H85         1.7600    2.0570    1.0440 hc        1 MOL     -0.038435
    177 N15         4.6190   -1.6930    3.1040 n         1 MOL     -0.002140
    178 C54         5.0680   -2.7710    4.0710 c3        1 MOL     -0.286260
    179 H86         4.4440   -2.7410    4.9640 h1        1 MOL      0.110707
    180 H87         4.9750   -3.7480    3.5970 h1        1 MOL      0.110707
    181 H88         6.1080   -2.5990    4.3500 h1        1 MOL      0.110707
    182 H89         4.4640   -1.8990    2.1350 hn        1 MOL     -0.076516
    183 Ca1        -2.0470   -0.2370   -1.2650 Ca        1 MOL      1.696898
    184 O25        -1.6380   -2.8210   -2.4090 oh        1 MOL     -0.795728
    185 H90        -1.4210   -3.1170   -3.2930 ho        1 MOL      0.388000
    186 H91        -2.3090   -3.4350   -2.1100 ho        1 MOL      0.388000
    187 O26        -0.1500   -0.3330   -3.2260 oh        1 MOL     -0.795728
    188 H92         0.2160   -0.8540   -3.9460 ho        1 MOL      0.388000
    189 H93        -0.4140    0.4910   -3.6370 ho        1 MOL      0.388000
@<TRIPOS>BOND
     1    1    2 1   
     2    1    4 1   
     3    1    5 1   
     4    1    6 1   
     5    2    3 2   
     6    2    7 1   
     7    7    8 1   
     8    7   15 1   
     9    8    9 1   
    10    8   11 1   
    11    8   16 1   
    12    9   10 2   
    13    9   19 1   
    14   11   12 1   
    15   11   17 1   
    16   11   18 1   
    17   12   13 1   
    18   12   14 1   
    19   19   20 1   
    20   19   28 1   
    21   20   21 1   
    22   20   23 1   
    23   20   29 1   
    24   21   22 2   
    25   21   41 1   
    26   23   24 1   
    27   23   30 1   
    28   23   31 1   
    29   24   25 1   
    30   24   32 1   
    31   24   33 1   
    32   25   26 1   
    33   25   34 1   
    34   25   35 1   
    35   26   27 1   
    36   26   36 1   
    37   26   37 1   
    38   27   38 1   
    39   27   39 1   
    40   27   40 1   
    41   41   42 1   
    42   41   49 1   
    43   42   43 1   
    44   42   45 1   
    45   42   50 1   
    46   43   44 2   
    47   43   53 1   
    48   45   46 1   
    49   45   51 1   
    50   45   52 1   
    51   46   47 1   
    52   46   48 1   
    53   53   54 1   
    54   53   57 1   
    55   54   55 1   
    56   54   58 1   
    57   54   59 1   
    58   55   56 2   
    59   55   60 1   
    60   60   61 1   
    61   60   68 1   
    62   61   62 1   
    63   61   64 1   
    64   61   69 1   
    65   62   63 2   
    66   62   72 1   
    67   64   65 1   
    68   64   70 1   
    69   64   71 1   
    70   65   66 1   
    71   65   67 1   
    72   72   73 1   
    73   72   76 1   
    74   73   74 1   
    75   73   77 1   
    76   73   78 1   
    77   74   75 2   
    78   74   79 1   
    79   79   80 1   
    80   79   86 1   
    81   80   81 1   
    82   80   83 1   
    83   80   87 1   
    84   81   82 2   
    85   81   93 1   
    86   83   84 1   
    87   83   85 1   
    88   83   88 1   
    89   84   90 1   
    90   84   91 1   
    91   84   92 1   
    92   85   89 1   
    93   93   94 1   
    94   93  101 1   
    95   94   95 1   
    96   94   97 1   
    97   94  102 1   
    98   95   96 2   
    99   95  112 1   
   100   97   98 1   
   101   97   99 1   
   102   97  103 1   
   103   98  100 1   
   104   98  104 1   
   105   98  105 1   
   106   99  106 1   
   107   99  107 1   
   108   99  108 1   
   109  100  109 1   
   110  100  110 1   
   111  100  111 1   
   112  112  113 1   
   113  112  119 1   
   114  113  114 1   
   115  113  116 1   
   116  113  120 1   
   117  114  115 2   
   118  114  126 1   
   119  116  117 1   
   120  116  118 1   
   121  116  121 1   
   122  117  123 1   
   123  117  124 1   
   124  117  125 1   
   125  118  122 1   
   126  126  127 1   
   127  126  133 1   
   128  127  128 1   
   129  127  130 1   
   130  127  134 1   
   131  128  129 2   
   132  128  140 1   
   133  130  131 1   
   134  130  132 1   
   135  130  135 1   
   136  131  137 1   
   137  131  138 1   
   138  131  139 1   
   139  132  136 1   
   140  140  141 1   
   141  140  149 1   
   142  141  142 1   
   143  141  144 1   
   144  141  150 1   
   145  142  143 2   
   146  142  162 1   
   147  144  145 1   
   148  144  151 1   
   149  144  152 1   
   150  145  146 1   
   151  145  153 1   
   152  145  154 1   
   153  146  147 1   
   154  146  155 1   
   155  146  156 1   
   156  147  148 1   
   157  147  157 1   
   158  147  158 1   
   159  148  159 1   
   160  148  160 1   
   161  148  161 1   
   162  162  163 1   
   163  162  171 1   
   164  163  164 1   
   165  163  166 1   
   166  163  172 1   
   167  164  165 2   
   168  164  177 1   
   169  166  167 1   
   170  166  173 1   
   171  166  174 1   
   172  167  168 1   
   173  167  175 1   
   174  167  176 1   
   175  168  169 1   
   176  168  170 1   
   177  177  178 1   
   178  177  182 1   
   179  178  179 1   
   180  178  180 1   
   181  178  181 1   
   182  184  185 1   
   183  184  186 1   
   184  187  188 1   
   185  187  189 1   
@<TRIPOS>SUBSTRUCTURE
     1 MOL         1 TEMP              0 ****  ****    0 ROOT
