@<TRIPOS>MOLECULE
MOL
  180   179     1     0     0
SMALL
resp


@<TRIPOS>ATOM
      1 C1         -0.3400    0.7560    6.1730 c3        1 MOL     -0.198906
      2 C2         -0.7970    1.0760    4.7610 c         1 MOL      0.807572
      3 O1          0.0550    1.4990    3.9670 o         1 MOL     -0.576588
      4 H1          0.7360    0.9080    6.2490 hc        1 MOL      0.031935
      5 H2         -0.8500    1.4120    6.8780 hc        1 MOL      0.031935
      6 H3         -0.5770   -0.2830    6.4040 hc        1 MOL      0.031935
      7 N1         -2.0860    0.9270    4.4500 n         1 MOL     -0.753062
      8 C3         -2.5570    1.1640    3.0840 c3        1 MOL      0.424949
      9 C4         -2.7300    2.7460    2.8590 c         1 MOL      0.561709
     10 O2         -3.2400    3.4690    3.7130 o         1 MOL     -0.611980
     11 C5         -3.8620    0.3850    2.8080 c3        1 MOL     -0.292669
     12 C6         -4.4400    0.4030    1.3440 c         1 MOL      0.786262
     13 O3         -5.6530    0.1640    1.1760 o         1 MOL     -0.628578
     14 O4         -3.7200    0.7460    0.4250 o         1 MOL     -0.628578
     15 H4         -2.6910    0.5370    5.1500 hn        1 MOL      0.326779
     16 H5         -1.7540    0.7330    2.4980 h1        1 MOL     -0.045022
     17 H6         -4.6250    0.8340    3.4440 hc        1 MOL      0.041761
     18 H7         -3.6970   -0.6860    2.9370 hc        1 MOL      0.041761
     19 N2         -2.4680    3.2600    1.6780 n         1 MOL     -0.522225
     20 C7         -2.7960    4.6310    1.1470 c3        1 MOL      0.156693
     21 C8         -3.7890    4.6240   -0.0710 c         1 MOL      0.366220
     22 O5         -4.3520    5.6960   -0.4470 o         1 MOL     -0.538551
     23 C9         -1.5290    5.4750    0.9500 c3        1 MOL      0.173617
     24 C10        -0.7760    5.7560    2.3480 c3        1 MOL      0.235412
     25 C11        -1.7910    6.8340    0.2630 c3        1 MOL     -0.395126
     26 C12         0.7030    6.2220    2.2950 c3        1 MOL     -0.362127
     27 H8         -2.1630    2.5790    0.9980 hn        1 MOL      0.171906
     28 H9         -3.3200    5.1770    1.9220 h1        1 MOL      0.033896
     29 H10        -0.8260    4.9190    0.3310 hc        1 MOL      0.045065
     30 H11        -0.8980    4.8510    2.9380 hc        1 MOL     -0.055334
     31 H12        -1.3040    6.4510    3.0120 hc        1 MOL     -0.055334
     32 H13        -2.6530    7.3130    0.7350 hc        1 MOL      0.081713
     33 H14        -0.9210    7.4870    0.2320 hc        1 MOL      0.081713
     34 H15        -2.0270    6.5430   -0.7560 hc        1 MOL      0.081713
     35 H16         0.7470    7.2170    1.8670 hc        1 MOL      0.073485
     36 H17         0.9740    6.1310    3.3470 hc        1 MOL      0.073485
     37 H18         1.2450    5.5450    1.6380 hc        1 MOL      0.073485
     38 N3         -4.0900    3.4180   -0.6570 n         1 MOL     -0.129572
     39 C13        -5.0730    3.3160   -1.8060 c3        1 MOL     -0.097377
     40 C14        -6.4640    3.0320   -1.4660 c         1 MOL      0.487447
     41 O6         -7.3100    3.5110   -2.1350 o         1 MOL     -0.550198
     42 C15        -4.5330    2.3900   -2.9360 c3        1 MOL      0.056506
     43 C16        -3.0270    2.4930   -3.2250 c         1 MOL      0.633028
     44 O7         -2.2450    1.5410   -2.9710 o         1 MOL     -0.683522
     45 O8         -2.6800    3.5440   -3.8400 o         1 MOL     -0.683522
     46 H19        -3.6310    2.5770   -0.3200 hn        1 MOL      0.157049
     47 H20        -5.1100    4.3090   -2.2480 h1        1 MOL      0.086284
     48 H21        -5.1770    2.5160   -3.8120 hc        1 MOL     -0.025822
     49 H22        -4.7000    1.3720   -2.5820 hc        1 MOL     -0.025822
     50 N4         -6.7930    2.2080   -0.4850 n         1 MOL     -0.163787
     51 C17        -8.1100    1.6670   -0.3680 c3        1 MOL     -0.149106
     52 C18        -8.3150    0.2510   -0.9910 c         1 MOL      0.515406
     53 O9         -9.3370   -0.0990   -1.5660 o         1 MOL     -0.603179
     54 H23        -5.9900    1.7990   -0.0260 hn        1 MOL      0.054054
     55 H24        -8.8120    2.2710   -0.9400 h1        1 MOL      0.066709
     56 H25        -8.3400    1.7330    0.6970 h1        1 MOL      0.066709
     57 N5         -7.2450   -0.5120   -0.9600 n         1 MOL     -0.269229
     58 C19        -7.1890   -1.8750   -1.4760 c3        1 MOL      0.001089
     59 C20        -6.8740   -2.9600   -0.3370 c         1 MOL      0.331367
     60 O10        -7.0980   -4.1710   -0.5920 o         1 MOL     -0.549582
     61 C21        -6.1520   -1.9930   -2.5650 c3        1 MOL     -0.187522
     62 C22        -4.7210   -1.7250   -2.1350 c         1 MOL      0.759200
     63 O11        -3.8660   -1.4800   -2.9880 o         1 MOL     -0.775923
     64 O12        -4.3800   -1.7690   -0.9460 o         1 MOL     -0.775923
     65 H26        -6.4490   -0.1480   -0.4720 hn        1 MOL      0.345559
     66 H27        -8.1690   -2.2070   -1.8170 h1        1 MOL      0.090296
     67 H28        -6.4140   -1.2450   -3.3220 hc        1 MOL      0.063486
     68 H29        -6.3080   -2.9490   -3.0580 hc        1 MOL      0.063486
     69 N6         -6.5590   -2.5230    0.8630 n         1 MOL     -0.132463
     70 C23        -6.3950   -3.2800    2.1450 c3        1 MOL     -0.006784
     71 C24        -5.1880   -4.2030    2.0720 c         1 MOL      0.510326
     72 O13        -5.1480   -5.2090    2.7520 o         1 MOL     -0.573943
     73 H30        -6.3910   -1.5280    0.9310 hn        1 MOL      0.064095
     74 H31        -7.2430   -3.8940    2.4460 h1        1 MOL      0.044556
     75 H32        -6.2740   -2.4840    2.8800 h1        1 MOL      0.044556
     76 N7         -4.1220   -3.8240    1.2980 n         1 MOL     -0.268717
     77 C25        -2.8590   -4.4930    1.2010 c3        1 MOL     -0.016430
     78 C26        -1.6990   -3.5010    1.0830 c         1 MOL      0.508619
     79 O14        -1.9080   -2.2850    0.9350 o         1 MOL     -0.601122
     80 C27        -2.8790   -5.4740    0.0390 c3        1 MOL      0.014040
     81 C28        -3.4850   -4.9740   -1.2920 c3        1 MOL     -0.030742
     82 C29        -2.5750   -4.1390   -2.1600 c         1 MOL      0.672282
     83 N8         -2.6600   -4.4700   -3.4280 n         1 MOL     -0.885073
     84 O15        -1.8190   -3.2480   -1.7230 o         1 MOL     -0.625753
     85 H33        -4.2320   -3.0290    0.6850 hn        1 MOL      0.260958
     86 H34        -2.6050   -5.0440    2.1140 h1        1 MOL      0.051702
     87 H35        -3.4050   -6.3700    0.3590 hc        1 MOL     -0.005572
     88 H36        -1.8870   -5.8080   -0.2390 hc        1 MOL     -0.005572
     89 H37        -4.5110   -4.5910   -1.2710 hc        1 MOL      0.018922
     90 H38        -3.6150   -5.9210   -1.8160 hc        1 MOL      0.018922
     91 H39        -3.3730   -5.0810   -3.8140 hn        1 MOL      0.404145
     92 H40        -2.0870   -3.8740   -4.0160 hn        1 MOL      0.404145
     93 N9         -0.4750   -4.0030    1.1660 n         1 MOL     -0.362992
     94 C30         0.6950   -3.1900    1.4280 c3        1 MOL      0.001118
     95 C31         1.8220   -3.3460    0.3810 c         1 MOL      0.440651
     96 O16         2.5050   -4.3800    0.4920 o         1 MOL     -0.575634
     97 C32         1.1620   -3.3980    2.9000 c3        1 MOL      0.388401
     98 C33         2.1320   -2.2040    3.1100 c3        1 MOL     -0.387291
     99 C34         0.1530   -3.3080    4.0480 c3        1 MOL     -0.387291
    100 H41        -0.4330   -4.9980    1.3650 hn        1 MOL      0.253124
    101 H42         0.3650   -2.1490    1.4180 h1        1 MOL      0.123672
    102 H43         1.6130   -4.3890    2.9590 hc        1 MOL     -0.070202
    103 H44         2.8070   -1.9580    2.2970 hc        1 MOL      0.077586
    104 H45         1.5410   -1.3350    3.4020 hc        1 MOL      0.077586
    105 H46         2.8100   -2.4670    3.9220 hc        1 MOL      0.077586
    106 H47        -0.5050   -4.1780    4.0090 hc        1 MOL      0.077586
    107 H48         0.7410   -3.2670    4.9610 hc        1 MOL      0.077586
    108 H49        -0.3540   -2.3520    3.9410 hc        1 MOL      0.077586
    109 N10         2.0230   -2.3460   -0.4470 n         1 MOL     -0.307379
    110 C35         3.0570   -2.2830   -1.4690 c3        1 MOL      0.101722
    111 C36         4.4790   -1.9430   -0.8800 c         1 MOL      0.462367
    112 O17         4.4300   -1.2750    0.1850 o         1 MOL     -0.312924
    113 C37         2.6540   -1.2210   -2.5060 c3        1 MOL     -0.358218
    114 C38         1.2680   -1.2660   -3.0360 c         1 MOL      0.908242
    115 N11         0.9540   -2.0810   -4.0540 n         1 MOL     -0.878589
    116 O18         0.3850   -0.6580   -2.4580 o         1 MOL     -0.631701
    117 H50         1.3740   -1.5670   -0.4060 hn        1 MOL      0.235835
    118 H51         3.2260   -3.2350   -1.9840 h1        1 MOL      0.038022
    119 H52         3.2570   -1.2950   -3.4050 hc        1 MOL      0.049158
    120 H53         2.9420   -0.2820   -2.0340 hc        1 MOL      0.049158
    121 H54         1.6850   -2.6140   -4.4920 hn        1 MOL      0.382220
    122 H55         0.0570   -1.9610   -4.5050 hn        1 MOL      0.382220
    123 N12         5.6490   -2.1640   -1.5040 n         1 MOL     -0.662184
    124 C39         6.9430   -1.7260   -0.8490 c3        1 MOL      0.339284
    125 C40         6.9570   -0.1910   -0.6870 c         1 MOL      0.549442
    126 O19         7.3600    0.2680    0.4120 o         1 MOL     -0.522569
    127 C41         8.2320   -2.2730   -1.5990 c3        1 MOL     -0.346244
    128 C42         9.4970   -1.7760   -1.0180 ca        1 MOL      0.341329
    129 C43         9.9090   -2.3030    0.2250 ca        1 MOL     -0.383186
    130 C44        10.3750   -0.9720   -1.7500 ca        1 MOL     -0.383186
    131 C45        11.1590   -1.9690    0.7550 ca        1 MOL     -0.039966
    132 C46        11.5670   -0.4800   -1.1820 ca        1 MOL     -0.039966
    133 C47        11.9640   -1.0390    0.0260 ca        1 MOL      0.100638
    134 O20        13.0870   -0.5480    0.6620 oh        1 MOL     -0.467822
    135 H56         5.7160   -2.4620   -2.4630 hn        1 MOL      0.351543
    136 H57         6.9070   -2.1080    0.1680 h1        1 MOL      0.060301
    137 H58         8.1570   -2.1560   -2.6850 hc        1 MOL      0.082944
    138 H59         8.1840   -3.3380   -1.4030 hc        1 MOL      0.082944
    139 H60         9.3390   -3.0160    0.8050 ha        1 MOL      0.171218
    140 H61        10.1270   -0.6360   -2.7440 ha        1 MOL      0.171218
    141 H62        11.4280   -2.3570    1.7200 ha        1 MOL      0.113388
    142 H63        12.1550    0.2320   -1.7400 ha        1 MOL      0.113388
    143 H64        13.5090    0.1290    0.1310 ho        1 MOL      0.354703
    144 N13         6.3200    0.6250   -1.5700 n         1 MOL     -0.678967
    145 C48         6.2500    2.0580   -1.3430 c3        1 MOL      0.413142
    146 C49         5.4280    2.5220   -0.1020 c         1 MOL      0.321247
    147 O21         5.7290    3.6520    0.4070 o         1 MOL     -0.539292
    148 C50         5.6990    2.7790   -2.5800 c3        1 MOL     -0.328627
    149 C51         4.2120    2.5860   -2.7830 c3        1 MOL     -0.097065
    150 C52         3.8730    2.9570   -4.2060 c         1 MOL      0.714467
    151 O22         3.2280    2.1640   -4.8800 o         1 MOL     -0.731138
    152 O23         4.1960    4.0860   -4.7050 o         1 MOL     -0.731138
    153 H65         5.9740    0.2440   -2.4360 hn        1 MOL      0.358952
    154 H66         7.2350    2.4560   -1.0950 h1        1 MOL     -0.011622
    155 H67         6.2390    2.3840   -3.4320 hc        1 MOL      0.066505
    156 H68         5.8790    3.8440   -2.4530 hc        1 MOL      0.066505
    157 H69         3.5570    3.1750   -2.1460 hc        1 MOL      0.061477
    158 H70         3.9790    1.5440   -2.5500 hc        1 MOL      0.061477
    159 N14         4.5930    1.6600    0.4800 n         1 MOL     -0.069576
    160 C53         3.7480    1.9600    1.6490 c3        1 MOL     -0.162557
    161 C54         4.3960    1.4770    3.0200 c         1 MOL      0.400585
    162 O24         4.1200    2.0140    4.0650 o         1 MOL     -0.554273
    163 C55         2.3070    1.4150    1.5450 c3        1 MOL      0.153440
    164 C56         1.5850    1.8950    0.2830 c3        1 MOL      0.037576
    165 C57         0.2200    1.2150    0.1270 c         1 MOL      0.531058
    166 O25        -0.8580    1.8410   -0.1650 o         1 MOL     -0.654863
    167 O26         0.2090   -0.0530    0.1800 o         1 MOL     -0.654863
    168 H71         4.6860    0.6990    0.1660 hn        1 MOL      0.036932
    169 H72         3.6550    3.0460    1.6540 h1        1 MOL      0.117418
    170 H73         1.7310    1.8550    2.3570 hc        1 MOL      0.013449
    171 H74         2.2220    0.3370    1.6710 hc        1 MOL      0.013449
    172 H75         2.2080    1.6630   -0.5860 hc        1 MOL      0.002922
    173 H76         1.4120    2.9590    0.4100 hc        1 MOL      0.002922
    174 N15         5.2670    0.5480    2.8770 n         1 MOL      0.080677
    175 C58         6.2350   -0.0830    3.7040 c3        1 MOL     -0.287995
    176 H77         7.2190    0.3370    3.4950 h1        1 MOL      0.094003
    177 H78         5.9840    0.0860    4.7510 h1        1 MOL      0.094003
    178 H79         6.2460   -1.1530    3.4990 h1        1 MOL      0.094003
    179 H80         5.2970    0.1200    1.9610 hn        1 MOL     -0.000420
    180 Ca1        -1.9450   -0.5050   -1.1030 Ca        1 MOL      1.726155
@<TRIPOS>BOND
     1    1    2 1   
     2    1    4 1   
     3    1    5 1   
     4    1    6 1   
     5    2    3 2   
     6    2    7 1   
     7    7    8 1   
     8    7   15 1   
     9    8    9 1   
    10    8   11 1   
    11    8   16 1   
    12    9   10 2   
    13    9   19 1   
    14   11   12 1   
    15   11   17 1   
    16   11   18 1   
    17   12   13 1   
    18   12   14 1   
    19   19   20 1   
    20   19   27 1   
    21   20   21 1   
    22   20   23 1   
    23   20   28 1   
    24   21   22 2   
    25   21   38 1   
    26   23   24 1   
    27   23   25 1   
    28   23   29 1   
    29   24   26 1   
    30   24   30 1   
    31   24   31 1   
    32   25   32 1   
    33   25   33 1   
    34   25   34 1   
    35   26   35 1   
    36   26   36 1   
    37   26   37 1   
    38   38   39 1   
    39   38   46 1   
    40   39   40 1   
    41   39   42 1   
    42   39   47 1   
    43   40   41 2   
    44   40   50 1   
    45   42   43 1   
    46   42   48 1   
    47   42   49 1   
    48   43   44 1   
    49   43   45 1   
    50   50   51 1   
    51   50   54 1   
    52   51   52 1   
    53   51   55 1   
    54   51   56 1   
    55   52   53 2   
    56   52   57 1   
    57   57   58 1   
    58   57   65 1   
    59   58   59 1   
    60   58   61 1   
    61   58   66 1   
    62   59   60 2   
    63   59   69 1   
    64   61   62 1   
    65   61   67 1   
    66   61   68 1   
    67   62   63 1   
    68   62   64 1   
    69   69   70 1   
    70   69   73 1   
    71   70   71 1   
    72   70   74 1   
    73   70   75 1   
    74   71   72 2   
    75   71   76 1   
    76   76   77 1   
    77   76   85 1   
    78   77   78 1   
    79   77   80 1   
    80   77   86 1   
    81   78   79 2   
    82   78   93 1   
    83   80   81 1   
    84   80   87 1   
    85   80   88 1   
    86   81   82 1   
    87   81   89 1   
    88   81   90 1   
    89   82   83 1   
    90   82   84 2   
    91   83   91 1   
    92   83   92 1   
    93   93   94 1   
    94   93  100 1   
    95   94   95 1   
    96   94   97 1   
    97   94  101 1   
    98   95   96 2   
    99   95  109 1   
   100   97   98 1   
   101   97   99 1   
   102   97  102 1   
   103   98  103 1   
   104   98  104 1   
   105   98  105 1   
   106   99  106 1   
   107   99  107 1   
   108   99  108 1   
   109  109  110 1   
   110  109  117 1   
   111  110  111 1   
   112  110  113 1   
   113  110  118 1   
   114  111  112 2   
   115  111  123 1   
   116  113  114 1   
   117  113  119 1   
   118  113  120 1   
   119  114  115 1   
   120  114  116 2   
   121  115  121 1   
   122  115  122 1   
   123  123  124 1   
   124  123  135 1   
   125  124  125 1   
   126  124  127 1   
   127  124  136 1   
   128  125  126 2   
   129  125  144 1   
   130  127  128 1   
   131  127  137 1   
   132  127  138 1   
   133  128  129 ar  
   134  128  130 ar  
   135  129  131 ar  
   136  129  139 1   
   137  130  132 ar  
   138  130  140 1   
   139  131  133 ar  
   140  131  141 1   
   141  132  133 ar  
   142  132  142 1   
   143  133  134 1   
   144  134  143 1   
   145  144  145 1   
   146  144  153 1   
   147  145  146 1   
   148  145  148 1   
   149  145  154 1   
   150  146  147 2   
   151  146  159 1   
   152  148  149 1   
   153  148  155 1   
   154  148  156 1   
   155  149  150 1   
   156  149  157 1   
   157  149  158 1   
   158  150  151 1   
   159  150  152 1   
   160  159  160 1   
   161  159  168 1   
   162  160  161 1   
   163  160  163 1   
   164  160  169 1   
   165  161  162 2   
   166  161  174 1   
   167  163  164 1   
   168  163  170 1   
   169  163  171 1   
   170  164  165 1   
   171  164  172 1   
   172  164  173 1   
   173  165  166 1   
   174  165  167 1   
   175  174  175 1   
   176  174  179 1   
   177  175  176 1   
   178  175  177 1   
   179  175  178 1   
@<TRIPOS>SUBSTRUCTURE
     1 MOL         1 TEMP              0 ****  ****    0 ROOT
