@<TRIPOS>MOLECULE
MOL
  179   176     1     0     0
SMALL
resp


@<TRIPOS>ATOM
      1 C1          1.5650    3.7710    4.9370 c3        1 MOL     -0.309557
      2 C2          1.0710    3.2050    3.6320 c         1 MOL      0.592356
      3 O1          1.8200    3.1230    2.6360 o         1 MOL     -0.559381
      4 H1          2.2470    4.5980    4.7400 hc        1 MOL      0.083164
      5 H2          0.7180    4.1310    5.5210 hc        1 MOL      0.083164
      6 H3          2.0890    2.9950    5.4960 hc        1 MOL      0.083164
      7 N1         -0.2650    3.0090    3.4990 n         1 MOL     -0.533755
      8 C3         -1.0690    2.8410    2.2930 c3        1 MOL      0.242653
      9 C4         -1.3190    4.1610    1.6100 c         1 MOL      0.450323
     10 O2         -2.4320    4.7200    1.7630 o         1 MOL     -0.470762
     11 C5         -2.2130    1.8850    2.6200 c3        1 MOL     -0.244217
     12 C6         -2.9940    1.4580    1.3820 c         1 MOL      0.739265
     13 O3         -2.3320    1.3390    0.3100 o         1 MOL     -0.697832
     14 O4         -4.2310    1.2980    1.4410 o         1 MOL     -0.697832
     15 H4         -0.7960    3.1860    4.3390 hn        1 MOL      0.304996
     16 H5         -0.5080    2.2260    1.5950 h1        1 MOL     -0.004476
     17 H6         -2.9420    2.4650    3.1920 hc        1 MOL      0.037426
     18 H7         -1.8440    1.0000    3.1460 hc        1 MOL      0.037426
     19 N2         -0.2570    4.7710    0.9980 n         1 MOL     -0.389798
     20 C7         -0.3770    6.0980    0.4670 c3        1 MOL     -0.129471
     21 C8         -1.2740    6.2160   -0.8080 c         1 MOL      0.386951
     22 O5         -1.9340    7.2000   -1.1020 o         1 MOL     -0.531901
     23 C9          1.0290    6.5640    0.0030 c3        1 MOL     -0.019292
     24 C10         2.0100    6.7260    1.1420 c3        1 MOL      0.127170
     25 C11         3.2490    7.5350    0.5170 c3        1 MOL     -0.047035
     26 C12         4.0050    8.2310    1.6920 c3        1 MOL      0.089734
     27 N3          5.3170    8.7920    1.3860 n4        1 MOL     -0.415687
     28 H8          0.5580    4.2050    0.8510 hn        1 MOL      0.371910
     29 H9         -0.8930    6.7420    1.1780 h1        1 MOL      0.140208
     30 H10         0.8670    7.5320   -0.4740 hc        1 MOL      0.038068
     31 H11         1.4210    5.8500   -0.7160 hc        1 MOL      0.038068
     32 H12         2.2080    5.7490    1.5950 hc        1 MOL     -0.023897
     33 H13         1.5360    7.3940    1.8450 hc        1 MOL     -0.023897
     34 H14         2.9120    8.3010   -0.1850 hc        1 MOL      0.031527
     35 H15         3.8250    6.8110   -0.0600 hc        1 MOL      0.031527
     36 H16         4.1910    7.4630    2.4520 hx        1 MOL      0.068528
     37 H17         3.3000    8.9190    2.1630 hx        1 MOL      0.068528
     38 H18         5.9910    8.1320    1.0180 hn        1 MOL      0.342106
     39 H19         5.1950    9.5160    0.7040 hn        1 MOL      0.342106
     40 H20         5.8030    9.1390    2.1970 hn        1 MOL      0.342106
     41 N4         -1.5270    5.1160   -1.4710 n         1 MOL     -0.188710
     42 C13        -2.4270    4.9670   -2.6320 c3        1 MOL     -0.030385
     43 C14        -3.8540    4.5440   -2.2160 c         1 MOL      0.497381
     44 O6         -4.8080    4.7130   -2.9160 o         1 MOL     -0.553617
     45 C15        -1.8470    3.9510   -3.6800 c3        1 MOL     -0.254521
     46 C16        -1.5990    2.5830   -2.9640 c         1 MOL      0.709648
     47 O7         -2.4100    1.6290   -2.9560 o         1 MOL     -0.739676
     48 O8         -0.6250    2.4400   -2.2110 o         1 MOL     -0.739676
     49 H21        -1.1970    4.2750   -1.0190 hn        1 MOL      0.167404
     50 H22        -2.5690    5.9430   -3.1030 h1        1 MOL      0.125003
     51 H23        -0.9250    4.4330   -4.0070 hc        1 MOL      0.080078
     52 H24        -2.3600    3.7310   -4.6150 hc        1 MOL      0.080078
     53 N5         -4.0570    4.0790   -0.9570 n         1 MOL     -0.074312
     54 C17        -5.3490    3.8250   -0.3120 c3        1 MOL     -0.460613
     55 C18        -6.0810    2.4780   -0.5650 c         1 MOL      0.637177
     56 O9         -7.1810    2.3440   -0.0200 o         1 MOL     -0.589108
     57 H25        -3.2520    3.7410   -0.4390 hn        1 MOL      0.114566
     58 H26        -6.0830    4.5430   -0.6830 h1        1 MOL      0.185427
     59 H27        -5.2380    3.9590    0.7640 h1        1 MOL      0.185427
     60 N6         -5.5420    1.5210   -1.3520 n         1 MOL     -0.350856
     61 C19        -6.2480    0.3330   -1.9000 c3        1 MOL     -0.076682
     62 C20        -6.4890   -0.7330   -0.8450 c         1 MOL      0.340935
     63 O10        -7.0940   -1.7540   -1.1750 o         1 MOL     -0.506622
     64 C21        -5.3960   -0.1150   -3.0720 c3        1 MOL      0.040908
     65 C22        -4.2680   -0.9820   -2.6660 c         1 MOL      0.635046
     66 N7         -4.0600   -2.0970   -3.3390 n         1 MOL     -0.915464
     67 O11        -3.5090   -0.7680   -1.7350 o         1 MOL     -0.608598
     68 H28        -4.6320    1.6920   -1.7430 hn        1 MOL      0.284960
     69 H29        -7.2110    0.6860   -2.2890 h1        1 MOL      0.118556
     70 H30        -4.9190    0.7710   -3.4920 hc        1 MOL      0.016093
     71 H31        -5.9940   -0.6350   -3.8210 hc        1 MOL      0.016093
     72 H32        -4.7390   -2.3940   -4.0340 hn        1 MOL      0.410753
     73 H33        -3.3080   -2.6240   -2.9210 hn        1 MOL      0.410753
     74 N8         -6.0360   -0.5610    0.4210 n         1 MOL     -0.053128
     75 C23        -6.3050   -1.5620    1.5200 c3        1 MOL     -0.506184
     76 C24        -5.1750   -2.4460    1.9440 c         1 MOL      0.861495
     77 O12        -5.3520   -3.2070    2.8960 o         1 MOL     -0.598409
     78 H34        -5.6280    0.3320    0.6780 hn        1 MOL      0.285370
     79 H35        -7.0870   -2.2000    1.0950 h1        1 MOL      0.176609
     80 H36        -6.6560   -1.0780    2.4340 h1        1 MOL      0.176609
     81 N9         -3.9790   -2.2940    1.3500 n         1 MOL     -0.675298
     82 C25        -2.9200   -3.3110    1.5640 c3        1 MOL      0.040479
     83 C26        -1.5000   -2.6660    1.3930 c         1 MOL      0.702077
     84 O13        -1.2930   -1.8050    0.5280 o         1 MOL     -0.685161
     85 C27        -3.0880   -4.3700    0.4980 c3        1 MOL      0.183059
     86 C28        -4.4090   -5.1260    0.4960 ca        1 MOL     -0.231983
     87 C29        -5.4080   -4.8780   -0.5040 ca        1 MOL     -0.038307
     88 C30        -4.6340   -6.0270    1.5720 ca        1 MOL     -0.038307
     89 C31        -6.5090   -5.6980   -0.5790 ca        1 MOL     -0.266465
     90 C32        -5.8170   -6.7110    1.5310 ca        1 MOL     -0.266465
     91 C33        -6.7560   -6.6330    0.4640 ca        1 MOL      0.345006
     92 O14        -7.8070   -7.3890    0.4730 oh        1 MOL     -0.456970
     93 H37        -3.7820   -1.5500    0.6890 hn        1 MOL      0.401770
     94 H38        -3.0600   -3.8290    2.5140 h1        1 MOL      0.065454
     95 H39        -2.2730   -5.0660    0.6340 hc        1 MOL     -0.030877
     96 H40        -2.9660   -4.0110   -0.5240 hc        1 MOL     -0.030877
     97 H41        -5.2270   -4.1750   -1.2980 ha        1 MOL      0.114404
     98 H42        -3.8900   -6.3530    2.2930 ha        1 MOL      0.114404
     99 H43        -7.1620   -5.6850   -1.4410 ha        1 MOL      0.129342
    100 H44        -6.0520   -7.4590    2.2790 ha        1 MOL      0.129342
    101 H45        -7.8900   -7.9710    1.2300 ho        1 MOL      0.360511
    102 N10        -0.4830   -3.1480    2.1650 n         1 MOL     -0.646613
    103 C34         0.8690   -2.5960    2.1550 c3        1 MOL      0.089031
    104 C35         1.8300   -3.6440    1.6000 c         1 MOL      0.479810
    105 O15         1.9050   -4.6850    2.3140 o         1 MOL     -0.558284
    106 C36         1.1960   -2.0090    3.5610 c3        1 MOL      0.015675
    107 C37         0.2120   -0.9840    4.0540 c3        1 MOL      0.199946
    108 C38         2.6380   -1.4460    3.4500 c3        1 MOL     -0.153178
    109 C39         0.3060   -0.8130    5.5720 c3        1 MOL     -0.295071
    110 H46        -0.5520   -4.0390    2.6350 hn        1 MOL      0.341987
    111 H47         0.9160   -1.8010    1.4130 h1        1 MOL      0.042373
    112 H48         1.0680   -2.8450    4.2450 hc        1 MOL      0.034726
    113 H49        -0.8030   -1.3340    3.8720 hc        1 MOL      0.013028
    114 H50         0.4360    0.0050    3.6510 hc        1 MOL      0.013028
    115 H51         3.3220   -2.2950    3.5410 hc        1 MOL      0.040802
    116 H52         2.8470   -0.9940    2.4860 hc        1 MOL      0.040802
    117 H53         2.8910   -0.9150    4.3750 hc        1 MOL      0.040802
    118 H54         1.3400   -0.7340    5.9040 hc        1 MOL      0.060405
    119 H55        -0.2700    0.0730    5.8410 hc        1 MOL      0.060405
    120 H56        -0.0860   -1.6980    6.0720 hc        1 MOL      0.060405
    121 N11         2.5750   -3.3720    0.5330 n         1 MOL     -0.136902
    122 C40         3.5700   -4.2730   -0.0860 c3        1 MOL     -0.140057
    123 C41         5.0260   -3.8970    0.1650 c         1 MOL      0.499006
    124 O16         5.2950   -2.8530    0.7460 o         1 MOL     -0.363086
    125 C42         3.3660   -4.4050   -1.5720 c3        1 MOL      0.109449
    126 O17         3.3460   -3.1160   -2.1850 oh        1 MOL     -0.573563
    127 H57         2.4510   -2.4300    0.1770 hn        1 MOL      0.107943
    128 H58         3.3810   -5.2610    0.3260 h1        1 MOL      0.087426
    129 H59         2.5130   -4.9920   -1.9110 h1        1 MOL      0.044941
    130 H60         4.1620   -4.9550   -2.0730 h1        1 MOL      0.044941
    131 H61         2.5270   -2.6460   -2.0370 ho        1 MOL      0.351523
    132 N12         6.0430   -4.8060   -0.1210 n         1 MOL     -0.503373
    133 C43         7.4780   -4.4270    0.0310 c3        1 MOL      0.232902
    134 C44         7.8590   -3.1070   -0.7030 c         1 MOL      0.362487
    135 O18         8.4780   -2.1930   -0.1330 o         1 MOL     -0.500916
    136 C45         8.4430   -5.5580   -0.2650 c3        1 MOL     -0.283418
    137 H62         5.8100   -5.7520   -0.4130 hn        1 MOL      0.302228
    138 H63         7.5970   -4.2890    1.1050 h1        1 MOL      0.049522
    139 H64         8.1560   -6.4360    0.3210 hc        1 MOL      0.081144
    140 H65         8.3280   -5.7600   -1.3220 hc        1 MOL      0.081144
    141 H66         9.4210   -5.1540    0.0050 hc        1 MOL      0.081144
    142 N13         7.4730   -3.0750   -1.9880 n         1 MOL     -0.187414
    143 C46         7.7390   -1.9490   -2.9210 c3        1 MOL     -0.141812
    144 C47         7.1820   -0.5600   -2.5270 c         1 MOL      0.551728
    145 O19         7.6680    0.4560   -3.1250 o         1 MOL     -0.539876
    146 C48         7.1450   -2.4720   -4.3140 c3        1 MOL     -0.215549
    147 H67         7.0250   -3.9170   -2.3070 hn        1 MOL      0.224528
    148 H68         8.8230   -1.8930   -2.9320 h1        1 MOL      0.132739
    149 H69         7.4800   -3.4760   -4.5530 hc        1 MOL      0.078703
    150 H70         6.0580   -2.3770   -4.2370 hc        1 MOL      0.078703
    151 H71         7.3950   -1.9000   -5.2010 hc        1 MOL      0.078703
    152 N14         6.2600   -0.4920   -1.5010 n         1 MOL     -0.305632
    153 C49         5.7350    0.7400   -0.9270 c3        1 MOL      0.012564
    154 C50         6.0810    0.8470    0.5620 c         1 MOL      0.465569
    155 O20         6.4050    1.9810    0.9090 o         1 MOL     -0.571143
    156 C51         4.2530    0.8810   -1.3040 c3        1 MOL     -0.133458
    157 C52         3.4020   -0.1100   -0.5310 c3        1 MOL     -0.084411
    158 C53         1.9500   -0.2090   -0.9810 c         1 MOL      0.846353
    159 O21         1.2830    0.8000   -0.8170 o         1 MOL     -0.753541
    160 O22         1.4320   -1.2280   -1.3910 o         1 MOL     -0.753541
    161 H72         6.0290   -1.3660   -1.0390 hn        1 MOL      0.153031
    162 H73         6.1790    1.5820   -1.4640 h1        1 MOL      0.093664
    163 H74         4.1960    0.8130   -2.3940 hc        1 MOL      0.072710
    164 H75         3.8930    1.8920   -1.1200 hc        1 MOL      0.072710
    165 H76         3.4080    0.1430    0.5290 hc        1 MOL      0.014786
    166 H77         3.8680   -1.0850   -0.6130 hc        1 MOL      0.014786
    167 N15         6.2040   -0.2120    1.3530 n         1 MOL     -0.058863
    168 C54         6.7200   -0.1890    2.6940 c3        1 MOL     -0.200404
    169 H78         7.5600    0.5050    2.7480 h1        1 MOL      0.085217
    170 H79         5.9370    0.1350    3.3800 h1        1 MOL      0.085217
    171 H80         7.0570   -1.1870    2.9720 h1        1 MOL      0.085217
    172 H81         5.9000   -1.1130    1.0070 hn        1 MOL      0.081941
    173 Ca1        -1.0490   -0.0650   -1.6030 Ca        1 MOL      1.735123
    174 O23        -0.9930   -2.5090   -2.6030 oh        1 MOL     -0.729683
    175 H82        -0.3710   -2.7340   -3.2890 ho        1 MOL      0.369456
    176 H83        -1.1230   -3.3290   -2.1190 ho        1 MOL      0.369456
    177 O24         0.1800   -0.4050   -4.2330 oh        1 MOL     -0.729683
    178 H84         1.0420   -0.6820   -4.5570 ho        1 MOL      0.369456
    179 H85        -0.3730   -1.1760   -4.3430 ho        1 MOL      0.369456
@<TRIPOS>BOND
     1    1    2 1   
     2    1    4 1   
     3    1    5 1   
     4    1    6 1   
     5    2    3 2   
     6    2    7 1   
     7    7    8 1   
     8    7   15 1   
     9    8    9 1   
    10    8   11 1   
    11    8   16 1   
    12    9   10 2   
    13    9   19 1   
    14   11   12 1   
    15   11   17 1   
    16   11   18 1   
    17   12   13 1   
    18   12   14 1   
    19   19   20 1   
    20   19   28 1   
    21   20   21 1   
    22   20   23 1   
    23   20   29 1   
    24   21   22 2   
    25   21   41 1   
    26   23   24 1   
    27   23   30 1   
    28   23   31 1   
    29   24   25 1   
    30   24   32 1   
    31   24   33 1   
    32   25   26 1   
    33   25   34 1   
    34   25   35 1   
    35   26   27 1   
    36   26   36 1   
    37   26   37 1   
    38   27   38 1   
    39   27   39 1   
    40   27   40 1   
    41   41   42 1   
    42   41   49 1   
    43   42   43 1   
    44   42   45 1   
    45   42   50 1   
    46   43   44 2   
    47   43   53 1   
    48   45   46 1   
    49   45   51 1   
    50   45   52 1   
    51   46   47 1   
    52   46   48 1   
    53   53   54 1   
    54   53   57 1   
    55   54   55 1   
    56   54   58 1   
    57   54   59 1   
    58   55   56 2   
    59   55   60 1   
    60   60   61 1   
    61   60   68 1   
    62   61   62 1   
    63   61   64 1   
    64   61   69 1   
    65   62   63 2   
    66   62   74 1   
    67   64   65 1   
    68   64   70 1   
    69   64   71 1   
    70   65   66 1   
    71   65   67 2   
    72   66   72 1   
    73   66   73 1   
    74   74   75 1   
    75   74   78 1   
    76   75   76 1   
    77   75   79 1   
    78   75   80 1   
    79   76   77 2   
    80   76   81 1   
    81   81   82 1   
    82   81   93 1   
    83   82   83 1   
    84   82   85 1   
    85   82   94 1   
    86   83   84 2   
    87   83  102 1   
    88   85   86 1   
    89   85   95 1   
    90   85   96 1   
    91   86   87 ar  
    92   86   88 ar  
    93   87   89 ar  
    94   87   97 1   
    95   88   90 ar  
    96   88   98 1   
    97   89   91 ar  
    98   89   99 1   
    99   90   91 ar  
   100   90  100 1   
   101   91   92 1   
   102   92  101 1   
   103  102  103 1   
   104  102  110 1   
   105  103  104 1   
   106  103  106 1   
   107  103  111 1   
   108  104  105 2   
   109  104  121 1   
   110  106  107 1   
   111  106  108 1   
   112  106  112 1   
   113  107  109 1   
   114  107  113 1   
   115  107  114 1   
   116  108  115 1   
   117  108  116 1   
   118  108  117 1   
   119  109  118 1   
   120  109  119 1   
   121  109  120 1   
   122  121  122 1   
   123  121  127 1   
   124  122  123 1   
   125  122  125 1   
   126  122  128 1   
   127  123  124 2   
   128  123  132 1   
   129  125  126 1   
   130  125  129 1   
   131  125  130 1   
   132  126  131 1   
   133  132  133 1   
   134  132  137 1   
   135  133  134 1   
   136  133  136 1   
   137  133  138 1   
   138  134  135 2   
   139  134  142 1   
   140  136  139 1   
   141  136  140 1   
   142  136  141 1   
   143  142  143 1   
   144  142  147 1   
   145  143  144 1   
   146  143  146 1   
   147  143  148 1   
   148  144  145 2   
   149  144  152 1   
   150  146  149 1   
   151  146  150 1   
   152  146  151 1   
   153  152  153 1   
   154  152  161 1   
   155  153  154 1   
   156  153  156 1   
   157  153  162 1   
   158  154  155 2   
   159  154  167 1   
   160  156  157 1   
   161  156  163 1   
   162  156  164 1   
   163  157  158 1   
   164  157  165 1   
   165  157  166 1   
   166  158  159 1   
   167  158  160 1   
   168  167  168 1   
   169  167  172 1   
   170  168  169 1   
   171  168  170 1   
   172  168  171 1   
   173  174  175 1   
   174  174  176 1   
   175  177  178 1   
   176  177  179 1   
@<TRIPOS>SUBSTRUCTURE
     1 MOL         1 TEMP              0 ****  ****    0 ROOT
