@<TRIPOS>MOLECULE
MOL
  189   185     1     0     0
SMALL
resp


@<TRIPOS>ATOM
      1 C1          0.5160    2.2820    5.1100 c3        1 MOL     -0.503293
      2 C2         -0.2480    2.3980    3.8160 c         1 MOL      0.640012
      3 O1          0.3840    2.7600    2.8050 o         1 MOL     -0.551013
      4 H1          0.7420    1.2340    5.3050 hc        1 MOL      0.128868
      5 H2          1.4460    2.8470    5.0350 hc        1 MOL      0.128868
      6 H3         -0.0870    2.6810    5.9260 hc        1 MOL      0.128868
      7 N1         -1.4960    1.8840    3.8070 n         1 MOL     -0.671736
      8 C3         -2.2700    1.6850    2.5480 c3        1 MOL      0.357968
      9 C4         -2.8200    3.0270    2.0200 c         1 MOL      0.360688
     10 O2         -4.0470    3.3680    2.1390 o         1 MOL     -0.470302
     11 C5         -3.2560    0.4730    2.7700 c3        1 MOL     -0.408075
     12 C6         -4.0520    0.2060    1.4770 c         1 MOL      0.635686
     13 O3         -3.5270    0.4970    0.3620 o         1 MOL     -0.579043
     14 O4         -5.2220   -0.2520    1.5470 o         1 MOL     -0.579043
     15 H4         -1.8840    1.5250    4.6670 hn        1 MOL      0.356907
     16 H5         -1.5250    1.3700    1.8090 h1        1 MOL      0.032248
     17 H6         -3.9510    0.8900    3.4990 hc        1 MOL      0.107477
     18 H7         -2.8900   -0.5060    3.0860 hc        1 MOL      0.107477
     19 N2         -1.9050    3.7890    1.3530 n         1 MOL     -0.369836
     20 C7         -2.1250    5.2030    1.0210 c3        1 MOL      0.033176
     21 C8         -2.9090    5.3570   -0.2730 c         1 MOL      0.419013
     22 O5         -3.7960    6.2750   -0.3440 o         1 MOL     -0.555059
     23 C9         -0.8440    6.0210    0.9960 c3        1 MOL     -0.400516
     24 C10        -0.3330    6.2010    2.4120 c3        1 MOL      0.278655
     25 C11         0.8910    7.1720    2.2230 c3        1 MOL     -0.153260
     26 C12         1.4270    7.5920    3.5700 c3        1 MOL     -0.138136
     27 N3          2.0240    6.4170    4.3240 n4        1 MOL     -0.472226
     28 H8         -1.0140    3.3320    1.2240 hn        1 MOL      0.364125
     29 H9         -2.7800    5.6120    1.7890 h1        1 MOL      0.095835
     30 H10        -1.1030    6.9900    0.5750 hc        1 MOL      0.119326
     31 H11        -0.0880    5.5150    0.4090 hc        1 MOL      0.119326
     32 H12         0.0180    5.2990    2.9210 hc        1 MOL     -0.013599
     33 H13        -1.0310    6.7440    3.0650 hc        1 MOL     -0.013599
     34 H14         0.5890    8.0990    1.7410 hc        1 MOL      0.087379
     35 H15         1.7520    6.7010    1.7450 hc        1 MOL      0.087379
     36 H16         0.6580    8.1190    4.1250 hx        1 MOL      0.138576
     37 H17         2.2720    8.2710    3.4230 hx        1 MOL      0.138576
     38 H18         1.2940    5.8760    4.7680 hn        1 MOL      0.363963
     39 H19         2.5910    5.9310    3.6570 hn        1 MOL      0.363963
     40 H20         2.6910    6.7570    5.0070 hn        1 MOL      0.363963
     41 N4         -2.7840    4.4470   -1.2580 n         1 MOL     -0.285350
     42 C13        -3.6870    4.3140   -2.4100 c3        1 MOL      0.023130
     43 C14        -4.9850    3.4670   -2.1380 c         1 MOL      0.430210
     44 O6         -5.8850    3.5000   -2.9260 o         1 MOL     -0.498465
     45 C15        -2.9000    3.7000   -3.5380 c3        1 MOL     -0.223035
     46 C16        -2.0570    2.4830   -3.3100 c         1 MOL      0.855893
     47 O7         -0.9400    2.4030   -3.8450 o         1 MOL     -0.756750
     48 O8         -2.4350    1.5480   -2.5950 o         1 MOL     -0.756750
     49 H21        -1.9880    3.8650   -1.0470 hn        1 MOL      0.245378
     50 H22        -4.0200    5.2860   -2.7680 h1        1 MOL      0.093062
     51 H23        -2.2070    4.4350   -3.9380 hc        1 MOL      0.045214
     52 H24        -3.6310    3.5050   -4.3200 hc        1 MOL      0.045214
     53 N5         -5.0210    2.7710   -0.9940 n         1 MOL      0.003847
     54 C17        -6.2670    2.2370   -0.3820 c3        1 MOL     -0.185580
     55 C18        -6.8660    1.0670   -1.2030 c         1 MOL      0.641909
     56 O9         -7.7640    1.2280   -2.0080 o         1 MOL     -0.575172
     57 H25        -4.1700    2.5550   -0.4760 hn        1 MOL      0.053519
     58 H26        -7.0330    2.9890   -0.1620 h1        1 MOL      0.078787
     59 H27        -6.0130    1.9520    0.6450 h1        1 MOL      0.078787
     60 N6         -6.4200   -0.1560   -1.0190 n         1 MOL     -0.354762
     61 C19        -6.8850   -1.3610   -1.6780 c3        1 MOL     -0.034967
     62 C20        -6.8630   -2.6700   -0.8400 c         1 MOL      0.448181
     63 O10        -7.0100   -3.7790   -1.2490 o         1 MOL     -0.500432
     64 C21        -6.0300   -1.5180   -2.9400 c3        1 MOL     -0.092337
     65 C22        -4.5500   -1.6210   -2.5830 c         1 MOL      0.777844
     66 O11        -4.1870   -2.2860   -1.5710 o         1 MOL     -0.760402
     67 O12        -3.6970   -0.9940   -3.1980 o         1 MOL     -0.760402
     68 H28        -5.6520   -0.1470   -0.3600 hn        1 MOL      0.079067
     69 H29        -7.9000   -1.2710   -2.0690 h1        1 MOL      0.107864
     70 H30        -6.2480   -0.7370   -3.6710 hc        1 MOL      0.045040
     71 H31        -6.2970   -2.4220   -3.4890 hc        1 MOL      0.045040
     72 N7         -6.7480   -2.4820    0.4880 n         1 MOL     -0.317792
     73 C23        -6.6250   -3.5110    1.5230 c3        1 MOL     -0.177005
     74 C24        -5.4070   -4.4050    1.5570 c         1 MOL      0.541664
     75 O13        -5.3380   -5.4420    2.2260 o         1 MOL     -0.583232
     76 H32        -6.5970   -1.5420    0.8280 hn        1 MOL      0.260432
     77 H33        -7.4970   -4.1720    1.4810 h1        1 MOL      0.101634
     78 H34        -6.6970   -2.9580    2.4570 h1        1 MOL      0.101634
     79 N8         -4.3720   -4.0190    0.7620 n         1 MOL     -0.268544
     80 C25        -3.0790   -4.7130    0.7490 c3        1 MOL     -0.149418
     81 C26        -2.0000   -3.6480    0.9290 c         1 MOL      0.669181
     82 O14        -2.1740   -2.4730    0.5060 o         1 MOL     -0.647948
     83 C27        -2.8180   -5.5460   -0.5060 c3        1 MOL      0.538892
     84 C28        -3.6590   -6.7950   -0.4090 c3        1 MOL     -0.476796
     85 O15        -3.1060   -4.8830   -1.7220 oh        1 MOL     -0.646570
     86 H35        -4.4740   -3.1420    0.2710 hn        1 MOL      0.273792
     87 H36        -2.9280   -5.3280    1.6310 h1        1 MOL      0.090236
     88 H37        -1.8360   -6.0050   -0.4290 h1        1 MOL     -0.068402
     89 H38        -3.2300   -3.9520   -1.4990 ho        1 MOL      0.425439
     90 H39        -3.4650   -7.4150   -1.2810 hc        1 MOL      0.121164
     91 H40        -3.3330   -7.2440    0.5260 hc        1 MOL      0.121164
     92 H41        -4.7250   -6.5580   -0.3300 hc        1 MOL      0.121164
     93 N9         -0.8280   -4.0850    1.4830 n         1 MOL     -0.647350
     94 C29         0.4190   -3.2610    1.5720 c3        1 MOL      0.147090
     95 C30         1.5310   -3.8490    0.6640 c         1 MOL      0.390470
     96 O16         1.8320   -5.0190    0.6780 o         1 MOL     -0.548087
     97 C31         0.8260   -3.3220    3.0430 c3        1 MOL      0.108954
     98 C32        -0.1460   -2.5130    4.0080 c3        1 MOL     -0.013463
     99 C33         2.2770   -2.8890    3.3530 c3        1 MOL     -0.080830
    100 C34        -0.0570   -2.7770    5.5360 c3        1 MOL     -0.296433
    101 H42        -0.7710   -5.0230    1.8530 hn        1 MOL      0.322467
    102 H43         0.3160   -2.2410    1.2080 h1        1 MOL      0.025068
    103 H44         0.7800   -4.3530    3.4010 hc        1 MOL      0.004017
    104 H45        -1.1740   -2.7410    3.7040 hc        1 MOL      0.054988
    105 H46         0.0820   -1.4750    3.7720 hc        1 MOL      0.054988
    106 H47         2.4320   -1.8370    3.1190 hc        1 MOL      0.001387
    107 H48         2.4070   -3.0220    4.4320 hc        1 MOL      0.001387
    108 H49         3.0180   -3.4670    2.7970 hc        1 MOL      0.001387
    109 H50        -0.5650   -1.9340    5.9880 hc        1 MOL      0.077457
    110 H51        -0.4800   -3.7530    5.7800 hc        1 MOL      0.077457
    111 H52         0.9400   -2.8570    5.9850 hc        1 MOL      0.077457
    112 N10         2.0700   -2.9640   -0.0940 n         1 MOL     -0.112123
    113 C35         3.3060   -3.1240   -0.8630 c3        1 MOL     -0.026735
    114 C36         4.5670   -2.9320   -0.0920 c         1 MOL      0.367053
    115 O17         4.4630   -2.3370    0.9490 o         1 MOL     -0.251587
    116 C37         3.3140   -2.2340   -2.0220 c3        1 MOL     -0.011168
    117 C38         2.3030   -2.5180   -3.0980 c3        1 MOL     -0.025764
    118 O18         3.3380   -0.8700   -1.7040 oh        1 MOL     -0.343626
    119 H53         1.6560   -2.0370   -0.1510 hn        1 MOL      0.219248
    120 H54         3.4200   -4.0750   -1.3870 h1        1 MOL      0.070990
    121 H55         4.2710   -2.4730   -2.5060 h1        1 MOL      0.069708
    122 H56         2.4130   -0.6220   -1.7170 ho        1 MOL      0.222139
    123 H57         1.3100   -2.6800   -2.6750 hc        1 MOL      0.019317
    124 H58         2.2710   -1.7890   -3.9090 hc        1 MOL      0.019317
    125 H59         2.5780   -3.4380   -3.6150 hc        1 MOL      0.019317
    126 N11         5.7700   -3.3610   -0.5340 n         1 MOL     -0.393958
    127 C39         7.1250   -3.0580   -0.0600 c3        1 MOL     -0.063539
    128 C40         7.3570   -1.6180   -0.0270 c         1 MOL      0.345094
    129 O19         7.7410   -1.0650    1.0300 o         1 MOL     -0.469599
    130 C41         8.1740   -3.6390   -1.0170 c3        1 MOL      0.187948
    131 C42         8.3610   -5.1370   -0.6320 c3        1 MOL     -0.251535
    132 O20         7.7480   -3.4470   -2.3400 oh        1 MOL     -0.630034
    133 H60         5.7260   -3.9400   -1.3680 hn        1 MOL      0.286507
    134 H61         7.2350   -3.4420    0.9600 h1        1 MOL      0.142518
    135 H62         9.1130   -3.0960   -0.8930 h1        1 MOL      0.070628
    136 H63         8.4140   -3.9250   -2.8510 ho        1 MOL      0.434874
    137 H64         9.1820   -5.5120   -1.2470 hc        1 MOL      0.080734
    138 H65         8.6050   -5.1700    0.4340 hc        1 MOL      0.080734
    139 H66         7.5830   -5.8740   -0.7840 hc        1 MOL      0.080734
    140 N12         6.9860   -0.9070   -1.1350 n         1 MOL     -0.127056
    141 C43         6.9930    0.5850   -1.2850 c3        1 MOL     -0.236440
    142 C44         6.1560    1.2930   -0.1650 c         1 MOL      0.394268
    143 O21         6.5540    2.3060    0.4040 o         1 MOL     -0.537489
    144 C45         6.5010    1.0390   -2.7040 c3        1 MOL     -0.003638
    145 C46         6.4700    2.5890   -2.9450 c3        1 MOL     -0.032127
    146 C47         6.0260    2.8680   -4.3350 c3        1 MOL      0.035479
    147 C48         6.3850    4.3050   -4.5630 c3        1 MOL      0.127731
    148 N13         6.0150    4.6800   -5.9460 n4        1 MOL     -0.330338
    149 H67         6.8860   -1.3730   -2.0150 hn        1 MOL      0.202350
    150 H68         8.0390    0.8760   -1.1650 h1        1 MOL      0.133146
    151 H69         5.5210    0.5800   -2.8340 hc        1 MOL      0.026745
    152 H70         7.1880    0.5480   -3.3900 hc        1 MOL      0.026745
    153 H71         7.5110    2.8920   -2.8550 hc        1 MOL      0.043703
    154 H72         5.7990    3.1770   -2.3240 hc        1 MOL      0.043703
    155 H73         4.9500    2.6890   -4.3800 hc        1 MOL      0.011952
    156 H74         6.5310    2.1910   -5.0340 hc        1 MOL      0.011952
    157 H75         7.4720    4.3320   -4.5560 hx        1 MOL      0.049630
    158 H76         6.0250    5.0130   -3.8080 hx        1 MOL      0.049630
    159 H77         6.2410    5.6600   -6.0540 hn        1 MOL      0.296175
    160 H78         6.5560    4.1290   -6.6000 hn        1 MOL      0.296175
    161 H79         5.0550    4.5360   -6.2400 hn        1 MOL      0.296175
    162 N14         5.0240    0.7240    0.2290 n         1 MOL      0.116580
    163 C49         4.0940    1.1620    1.2450 c3        1 MOL     -0.278188
    164 C50         4.6490    0.9990    2.6960 c         1 MOL      0.524106
    165 O22         4.7470    1.9560    3.4350 o         1 MOL     -0.560445
    166 C51         2.7090    0.6000    1.1480 c3        1 MOL     -0.018473
    167 C52         1.9300    1.3880    0.0110 c3        1 MOL     -0.107577
    168 C53         0.5250    0.7990   -0.1790 c         1 MOL      0.768241
    169 O23        -0.5220    1.4770   -0.4090 o         1 MOL     -0.771690
    170 O24         0.4540   -0.4670   -0.1480 o         1 MOL     -0.771690
    171 H80         4.7620   -0.0470   -0.3740 hn        1 MOL      0.038612
    172 H81         3.9110    2.2270    1.1010 h1        1 MOL      0.075354
    173 H82         2.1500    0.7770    2.0640 hc        1 MOL      0.055902
    174 H83         2.6940   -0.4730    0.9890 hc        1 MOL      0.055902
    175 H84         2.5300    1.4280   -0.8990 hc        1 MOL      0.018587
    176 H85         1.7600    2.4280    0.2950 hc        1 MOL      0.018587
    177 N15         5.0370   -0.2600    2.9720 n         1 MOL     -0.051733
    178 C54         5.7060   -0.6030    4.2190 c3        1 MOL     -0.291679
    179 H86         5.8090   -1.6850    4.2890 h1        1 MOL      0.104115
    180 H87         6.6940   -0.1420    4.2400 h1        1 MOL      0.104115
    181 H88         5.1160   -0.2400    5.0610 h1        1 MOL      0.104115
    182 H89         4.8990   -0.9620    2.2670 hn        1 MOL      0.065683
    183 Ca1        -1.9470   -0.5720   -1.3420 Ca        1 MOL      1.761999
    184 O25        -1.1230   -2.8560   -2.3500 oh        1 MOL     -0.774750
    185 H90        -0.8620   -2.8620   -3.2710 ho        1 MOL      0.372786
    186 H91        -1.2460   -3.7840   -2.1290 ho        1 MOL      0.372786
    187 O26         0.1920    0.0590   -3.3300 oh        1 MOL     -0.774750
    188 H92        -0.0910    0.9600   -3.4850 ho        1 MOL      0.372786
    189 H93         0.7830   -0.1340   -4.0690 ho        1 MOL      0.372786
@<TRIPOS>BOND
     1    1    2 1   
     2    1    4 1   
     3    1    5 1   
     4    1    6 1   
     5    2    3 2   
     6    2    7 1   
     7    7    8 1   
     8    7   15 1   
     9    8    9 1   
    10    8   11 1   
    11    8   16 1   
    12    9   10 2   
    13    9   19 1   
    14   11   12 1   
    15   11   17 1   
    16   11   18 1   
    17   12   13 1   
    18   12   14 1   
    19   19   20 1   
    20   19   28 1   
    21   20   21 1   
    22   20   23 1   
    23   20   29 1   
    24   21   22 2   
    25   21   41 1   
    26   23   24 1   
    27   23   30 1   
    28   23   31 1   
    29   24   25 1   
    30   24   32 1   
    31   24   33 1   
    32   25   26 1   
    33   25   34 1   
    34   25   35 1   
    35   26   27 1   
    36   26   36 1   
    37   26   37 1   
    38   27   38 1   
    39   27   39 1   
    40   27   40 1   
    41   41   42 1   
    42   41   49 1   
    43   42   43 1   
    44   42   45 1   
    45   42   50 1   
    46   43   44 2   
    47   43   53 1   
    48   45   46 1   
    49   45   51 1   
    50   45   52 1   
    51   46   47 1   
    52   46   48 1   
    53   53   54 1   
    54   53   57 1   
    55   54   55 1   
    56   54   58 1   
    57   54   59 1   
    58   55   56 2   
    59   55   60 1   
    60   60   61 1   
    61   60   68 1   
    62   61   62 1   
    63   61   64 1   
    64   61   69 1   
    65   62   63 2   
    66   62   72 1   
    67   64   65 1   
    68   64   70 1   
    69   64   71 1   
    70   65   66 1   
    71   65   67 1   
    72   72   73 1   
    73   72   76 1   
    74   73   74 1   
    75   73   77 1   
    76   73   78 1   
    77   74   75 2   
    78   74   79 1   
    79   79   80 1   
    80   79   86 1   
    81   80   81 1   
    82   80   83 1   
    83   80   87 1   
    84   81   82 2   
    85   81   93 1   
    86   83   84 1   
    87   83   85 1   
    88   83   88 1   
    89   84   90 1   
    90   84   91 1   
    91   84   92 1   
    92   85   89 1   
    93   93   94 1   
    94   93  101 1   
    95   94   95 1   
    96   94   97 1   
    97   94  102 1   
    98   95   96 2   
    99   95  112 1   
   100   97   98 1   
   101   97   99 1   
   102   97  103 1   
   103   98  100 1   
   104   98  104 1   
   105   98  105 1   
   106   99  106 1   
   107   99  107 1   
   108   99  108 1   
   109  100  109 1   
   110  100  110 1   
   111  100  111 1   
   112  112  113 1   
   113  112  119 1   
   114  113  114 1   
   115  113  116 1   
   116  113  120 1   
   117  114  115 2   
   118  114  126 1   
   119  116  117 1   
   120  116  118 1   
   121  116  121 1   
   122  117  123 1   
   123  117  124 1   
   124  117  125 1   
   125  118  122 1   
   126  126  127 1   
   127  126  133 1   
   128  127  128 1   
   129  127  130 1   
   130  127  134 1   
   131  128  129 2   
   132  128  140 1   
   133  130  131 1   
   134  130  132 1   
   135  130  135 1   
   136  131  137 1   
   137  131  138 1   
   138  131  139 1   
   139  132  136 1   
   140  140  141 1   
   141  140  149 1   
   142  141  142 1   
   143  141  144 1   
   144  141  150 1   
   145  142  143 2   
   146  142  162 1   
   147  144  145 1   
   148  144  151 1   
   149  144  152 1   
   150  145  146 1   
   151  145  153 1   
   152  145  154 1   
   153  146  147 1   
   154  146  155 1   
   155  146  156 1   
   156  147  148 1   
   157  147  157 1   
   158  147  158 1   
   159  148  159 1   
   160  148  160 1   
   161  148  161 1   
   162  162  163 1   
   163  162  171 1   
   164  163  164 1   
   165  163  166 1   
   166  163  172 1   
   167  164  165 2   
   168  164  177 1   
   169  166  167 1   
   170  166  173 1   
   171  166  174 1   
   172  167  168 1   
   173  167  175 1   
   174  167  176 1   
   175  168  169 1   
   176  168  170 1   
   177  177  178 1   
   178  177  182 1   
   179  178  179 1   
   180  178  180 1   
   181  178  181 1   
   182  184  185 1   
   183  184  186 1   
   184  187  188 1   
   185  187  189 1   
@<TRIPOS>SUBSTRUCTURE
     1 MOL         1 TEMP              0 ****  ****    0 ROOT
