@<TRIPOS>MOLECULE
MOL
  186   183     1     0     0
SMALL
resp


@<TRIPOS>ATOM
      1 C1          0.6270   -1.8380    6.2260 c3        1 MOL     -0.355970
      2 C2          0.9850   -1.9600    4.7190 c         1 MOL      0.712450
      3 O1          0.2470   -2.5010    3.8970 o         1 MOL     -0.565904
      4 H1          1.5190   -1.5640    6.7900 hc        1 MOL      0.082725
      5 H2         -0.1360   -1.0710    6.3580 hc        1 MOL      0.082725
      6 H3          0.2490   -2.7940    6.5870 hc        1 MOL      0.082725
      7 N1          2.1600   -1.4860    4.3790 n         1 MOL     -0.545115
      8 C3          2.6490   -1.5860    2.9910 c3        1 MOL      0.163692
      9 C4          2.9830   -3.0480    2.6330 c         1 MOL      0.524346
     10 O2          3.8600   -3.6800    3.2590 o         1 MOL     -0.574682
     11 C5          3.8200   -0.6050    2.8690 c3        1 MOL     -0.413013
     12 C6          4.4740   -0.6090    1.4580 c         1 MOL      0.909996
     13 O3          5.4310    0.2310    1.3720 o         1 MOL     -0.666467
     14 O4          4.0270   -1.2480    0.4480 o         1 MOL     -0.666467
     15 H4          2.6350   -0.8430    4.9950 hn        1 MOL      0.304310
     16 H5          1.8310   -1.2010    2.3770 h1        1 MOL     -0.022496
     17 H6          4.5140   -0.8710    3.6710 hc        1 MOL      0.095855
     18 H7          3.4230    0.3930    3.0510 hc        1 MOL      0.095855
     19 N2          2.2470   -3.6500    1.5830 n         1 MOL     -0.038152
     20 C7          2.4730   -5.0460    1.1430 c3        1 MOL     -0.079706
     21 C8          3.2980   -5.3290   -0.1160 c         1 MOL      0.392649
     22 O5          3.5070   -6.4810   -0.5590 o         1 MOL     -0.566221
     23 C9          1.1610   -5.8500    1.2410 c3        1 MOL      0.116251
     24 C10         0.0610   -5.5270    0.1700 c3        1 MOL      0.052557
     25 C11         0.5810   -5.6340    2.6670 c3        1 MOL     -0.227344
     26 C12        -1.3260   -6.1270    0.4670 c3        1 MOL     -0.265308
     27 H8          1.5830   -3.0970    1.0760 hn        1 MOL      0.077729
     28 H9          3.1670   -5.4910    1.8550 h1        1 MOL      0.093811
     29 H10         1.4530   -6.8900    1.2640 hc        1 MOL     -0.025150
     30 H11         0.3380   -5.8810   -0.8190 hc        1 MOL      0.030420
     31 H12        -0.0160   -4.4380    0.1890 hc        1 MOL      0.030420
     32 H13        -0.0850   -4.7710    2.7250 hc        1 MOL      0.045304
     33 H14        -0.0640   -6.4260    3.0400 hc        1 MOL      0.045304
     34 H15         1.3860   -5.4180    3.3750 hc        1 MOL      0.045304
     35 H16        -1.6840   -5.7140    1.4070 hc        1 MOL      0.059287
     36 H17        -2.0010   -5.7130   -0.2810 hc        1 MOL      0.059287
     37 H18        -1.3860   -7.2200    0.4800 hc        1 MOL      0.059287
     38 N3          3.8660   -4.2880   -0.7640 n         1 MOL     -0.148340
     39 C13         4.9600   -4.4140   -1.7790 c3        1 MOL     -0.057005
     40 C14         6.2140   -3.5890   -1.5040 c         1 MOL      0.409665
     41 O6          7.2250   -3.9560   -2.0800 o         1 MOL     -0.529893
     42 C15         4.4590   -3.9670   -3.1770 c3        1 MOL      0.004063
     43 C16         3.9900   -2.5130   -3.4700 c         1 MOL      0.716545
     44 O7          3.9940   -2.1330   -4.6660 o         1 MOL     -0.700073
     45 O8          3.6240   -1.8480   -2.4900 o         1 MOL     -0.700073
     46 H19         3.6610   -3.3480   -0.4640 hn        1 MOL      0.034620
     47 H20         5.2380   -5.4720   -1.7750 h1        1 MOL      0.102117
     48 H21         3.5680   -4.5620   -3.3880 hc        1 MOL     -0.015927
     49 H22         5.1100   -4.3600   -3.9570 hc        1 MOL     -0.015927
     50 N4          6.1980   -2.6360   -0.5450 n         1 MOL     -0.080718
     51 C17         7.4680   -2.1110    0.0170 c3        1 MOL     -0.221000
     52 C18         7.9610   -0.8770   -0.7050 c         1 MOL      0.632320
     53 O9          9.0890   -0.9110   -1.1770 o         1 MOL     -0.592096
     54 H23         5.3190   -2.4360   -0.0830 hn        1 MOL      0.092232
     55 H24         8.2890   -2.8160   -0.0950 h1        1 MOL      0.081280
     56 H25         7.3420   -1.9130    1.0750 h1        1 MOL      0.081280
     57 N5          7.1120    0.2020   -0.8080 n         1 MOL     -0.305272
     58 C19         7.5420    1.4740   -1.4960 c3        1 MOL     -0.153775
     59 C20         7.4470    2.6650   -0.4950 c         1 MOL      0.569629
     60 O10         7.7890    3.7690   -0.8360 o         1 MOL     -0.591312
     61 C21         6.6120    1.6890   -2.6550 c3        1 MOL      0.169504
     62 C22         5.0770    1.5880   -2.5440 c         1 MOL      0.678549
     63 O11         4.3790    1.7890   -3.5440 o         1 MOL     -0.736970
     64 O12         4.5310    1.3670   -1.4490 o         1 MOL     -0.736970
     65 H26         6.2220    0.1630   -0.3350 hn        1 MOL      0.057859
     66 H27         8.5470    1.4090   -1.9070 h1        1 MOL      0.111268
     67 H28         6.8980    0.9480   -3.4010 hc        1 MOL     -0.022463
     68 H29         6.7910    2.6090   -3.2050 hc        1 MOL     -0.022463
     69 N6          7.0380    2.4770    0.7260 n         1 MOL     -0.395682
     70 C23         6.8000    3.4710    1.7890 c3        1 MOL      0.142689
     71 C24         5.4680    4.2140    1.6640 c         1 MOL      0.328608
     72 O13         5.4610    5.4220    1.9390 o         1 MOL     -0.565557
     73 H30         6.4950    1.6360    0.8840 hn        1 MOL      0.220995
     74 H31         7.6590    4.1290    1.8890 h1        1 MOL      0.028262
     75 H32         6.8670    2.9530    2.7460 h1        1 MOL      0.028262
     76 N7          4.4500    3.5920    1.1160 n         1 MOL     -0.116482
     77 C25         3.1920    4.1340    0.7340 c3        1 MOL     -0.073438
     78 C26         2.1150    3.0030    0.8480 c         1 MOL      0.440124
     79 O14         2.2770    1.8140    0.4950 o         1 MOL     -0.633742
     80 C27         3.2290    4.5890   -0.7740 c3        1 MOL      0.480456
     81 C28         3.8870    5.9010   -0.9590 c3        1 MOL     -0.454830
     82 C29         3.1310    7.1560   -0.5030 c         1 MOL      0.677356
     83 N8          3.7350    8.3190   -0.4510 n         1 MOL     -0.730546
     84 O15         1.9960    7.0900   -0.0770 o         1 MOL     -0.572582
     85 H33         4.6120    2.5970    1.0500 hn        1 MOL      0.202659
     86 H34         2.9180    5.0220    1.2940 h1        1 MOL      0.089687
     87 H35         2.2200    4.7940   -1.1260 hc        1 MOL     -0.100841
     88 H36         3.8140    3.9010   -1.3840 hc        1 MOL     -0.100841
     89 H37         3.9150    6.0600   -2.0420 hc        1 MOL      0.118406
     90 H38         4.8770    6.0110   -0.5160 hc        1 MOL      0.118406
     91 H39         4.6970    8.3950   -0.7650 hn        1 MOL      0.325108
     92 H40         3.1410    9.1300   -0.4240 hn        1 MOL      0.325108
     93 N9          0.9570    3.4280    1.3840 n         1 MOL     -0.402295
     94 C30        -0.0900    2.4880    1.7170 c3        1 MOL      0.072890
     95 C31        -1.3210    2.9960    0.9160 c         1 MOL      0.376952
     96 O16        -1.8370    4.0260    1.1640 o         1 MOL     -0.542498
     97 C32        -0.2360    2.4080    3.2620 c3        1 MOL      0.249136
     98 C33        -1.3560    1.4650    3.6170 c3        1 MOL     -0.275859
     99 C34         1.1380    2.0330    3.8720 c3        1 MOL     -0.275859
    100 H41         0.7890    4.3920    1.6270 hn        1 MOL      0.292057
    101 H42         0.0950    1.4560    1.4130 h1        1 MOL      0.128424
    102 H43        -0.5010    3.4070    3.5940 hc        1 MOL     -0.037398
    103 H44        -2.3080    1.9090    3.3330 hc        1 MOL      0.052695
    104 H45        -1.2390    0.4570    3.2160 hc        1 MOL      0.052695
    105 H46        -1.3760    1.3910    4.7030 hc        1 MOL      0.052695
    106 H47         1.2870    0.9910    3.5870 hc        1 MOL      0.052695
    107 H48         1.9210    2.6950    3.4960 hc        1 MOL      0.052695
    108 H49         1.1650    2.2190    4.9480 hc        1 MOL      0.052695
    109 N10        -1.7110    2.2720   -0.1070 n         1 MOL     -0.169679
    110 C35        -2.9470    2.4700   -0.8620 c3        1 MOL      0.072734
    111 C36        -4.2250    2.0760   -0.0260 c         1 MOL      0.306985
    112 O17        -4.1540    1.3750    0.9870 o         1 MOL     -0.290443
    113 C37        -2.9400    1.5800   -2.1450 c3        1 MOL     -0.236516
    114 C38        -4.0210    1.8950   -3.1710 c         1 MOL      0.608313
    115 N11        -4.1830    3.0010   -3.7840 n         1 MOL     -0.676575
    116 O18        -4.9240    1.0050   -3.3380 o         1 MOL     -0.497677
    117 H50        -1.1280    1.4800   -0.3650 hn        1 MOL      0.172594
    118 H51        -3.0530    3.5040   -1.1920 h1        1 MOL      0.029737
    119 H52        -2.9260    0.5140   -1.9200 hc        1 MOL      0.089383
    120 H53        -1.9150    1.6910   -2.4970 hc        1 MOL      0.089383
    121 H54        -3.6600    3.8410   -3.5600 hn        1 MOL      0.336537
    122 H55        -5.1000    3.1480   -4.1810 hn        1 MOL      0.336537
    123 N12        -5.4150    2.4770   -0.5070 n         1 MOL     -0.390249
    124 C39        -6.6830    1.9820    0.0400 c3        1 MOL      0.151302
    125 C40        -6.7770    0.4250   -0.0370 c         1 MOL      0.767308
    126 O19        -7.2470   -0.1510    0.9030 o         1 MOL     -0.548862
    127 C41        -7.8910    2.5760   -0.7650 c3        1 MOL     -0.131873
    128 C42        -9.2480    2.2390   -0.2540 ca        1 MOL     -0.023357
    129 C43        -9.6680    2.8010    0.9510 ca        1 MOL     -0.130679
    130 C44       -10.0200    1.2470   -0.8700 ca        1 MOL     -0.130679
    131 C45       -10.9290    2.4090    1.4870 ca        1 MOL     -0.275911
    132 C46       -11.2110    0.7990   -0.2670 ca        1 MOL     -0.275911
    133 C47       -11.7270    1.4170    0.9140 ca        1 MOL      0.375424
    134 O20       -12.9340    1.0690    1.5240 oh        1 MOL     -0.564414
    135 H56        -5.5310    3.0590   -1.3320 hn        1 MOL      0.208558
    136 H57        -6.8490    2.3380    1.0580 h1        1 MOL      0.029503
    137 H58        -7.8820    2.2240   -1.7960 hc        1 MOL      0.056915
    138 H59        -7.8220    3.6650   -0.7150 hc        1 MOL      0.056915
    139 H60        -9.0330    3.4830    1.5050 ha        1 MOL      0.136678
    140 H61        -9.7230    0.9300   -1.8670 ha        1 MOL      0.136678
    141 H62       -11.1830    2.6350    2.5120 ha        1 MOL      0.142603
    142 H63       -11.8210    0.1040   -0.8240 ha        1 MOL      0.142603
    143 H64       -13.4910    0.4620    1.0320 ho        1 MOL      0.399017
    144 N13        -6.2600   -0.2740   -1.0790 n         1 MOL     -0.457307
    145 C48        -6.3350   -1.7000   -1.0460 c3        1 MOL     -0.203367
    146 C49        -5.4580   -2.3560   -0.0370 c         1 MOL      0.510378
    147 O21        -5.8530   -3.3410    0.5690 o         1 MOL     -0.556354
    148 C50        -6.0890   -2.2760   -2.4130 c3        1 MOL      0.302887
    149 C51        -7.1000   -1.8340   -3.5510 c3        1 MOL     -0.139413
    150 C52        -6.8280   -2.5460   -4.8320 c         1 MOL      0.686832
    151 O22        -6.4770   -1.9010   -5.8340 o         1 MOL     -0.740773
    152 O23        -6.9710   -3.8230   -4.8330 o         1 MOL     -0.740773
    153 H65        -5.8580    0.2390   -1.8610 hn        1 MOL      0.167087
    154 H66        -7.3550   -2.0370   -0.8390 h1        1 MOL      0.121515
    155 H67        -6.2480   -3.3580   -2.3330 hc        1 MOL     -0.047764
    156 H68        -5.0510   -2.2330   -2.7430 hc        1 MOL     -0.047764
    157 H69        -7.1360   -0.7600   -3.7370 hc        1 MOL     -0.015338
    158 H70        -8.0630   -2.2220   -3.2160 hc        1 MOL     -0.015338
    159 N14        -4.3810   -1.7670    0.3310 n         1 MOL     -0.392602
    160 C53        -3.4760   -2.2060    1.4120 c3        1 MOL     -0.031197
    161 C54        -4.0280   -1.8360    2.7800 c         1 MOL      0.473241
    162 O24        -3.7470   -2.5570    3.7350 o         1 MOL     -0.561452
    163 C55        -2.0670   -1.5940    1.2160 c3        1 MOL      0.048619
    164 C56        -1.5260   -1.7940   -0.2570 c3        1 MOL      0.007823
    165 C57        -0.1560   -1.2310   -0.4180 c         1 MOL      0.632660
    166 O25         0.8100   -1.9580   -0.5780 o         1 MOL     -0.664454
    167 O26        -0.0370    0.0090   -0.5390 o         1 MOL     -0.664454
    168 H71        -4.3050   -0.8620   -0.0920 hn        1 MOL      0.269746
    169 H72        -3.2950   -3.2720    1.3020 h1        1 MOL      0.111447
    170 H73        -1.4150   -1.9980    1.9840 hc        1 MOL      0.036457
    171 H74        -2.2170   -0.5260    1.3530 hc        1 MOL      0.036457
    172 H75        -2.1500   -1.3270   -1.0220 hc        1 MOL      0.006227
    173 H76        -1.4430   -2.8350   -0.5500 hc        1 MOL      0.006227
    174 N15        -4.7640   -0.6810    2.8530 n         1 MOL     -0.016518
    175 C58        -5.4850   -0.1780    4.0790 c3        1 MOL     -0.256441
    176 H77        -5.7970   -1.0250    4.6890 h1        1 MOL      0.092312
    177 H78        -4.8170    0.4590    4.6580 h1        1 MOL      0.092312
    178 H79        -6.3620    0.3940    3.7770 h1        1 MOL      0.092312
    179 H80        -4.8080   -0.1510    1.9960 hn        1 MOL     -0.044583
    180 Ca1         2.4840   -0.0090   -1.2920 Ca        1 MOL      1.744421
    181 O27         0.9960   -0.7110   -3.4260 oh        1 MOL     -0.840154
    182 H81         0.2260   -0.1890   -3.6670 ho        1 MOL      0.397527
    183 H82         1.2590   -1.1230   -4.2490 ho        1 MOL      0.397527
    184 O28         1.7540    2.3370   -2.6570 oh        1 MOL     -0.840154
    185 H83         1.2230    3.0330   -3.0480 ho        1 MOL      0.397527
    186 H84         2.5880    2.3740   -3.1150 ho        1 MOL      0.397527
@<TRIPOS>BOND
     1    1    2 1   
     2    1    4 1   
     3    1    5 1   
     4    1    6 1   
     5    2    3 2   
     6    2    7 1   
     7    7    8 1   
     8    7   15 1   
     9    8    9 1   
    10    8   11 1   
    11    8   16 1   
    12    9   10 2   
    13    9   19 1   
    14   11   12 1   
    15   11   17 1   
    16   11   18 1   
    17   12   13 1   
    18   12   14 1   
    19   19   20 1   
    20   19   27 1   
    21   20   21 1   
    22   20   23 1   
    23   20   28 1   
    24   21   22 2   
    25   21   38 1   
    26   23   24 1   
    27   23   25 1   
    28   23   29 1   
    29   24   26 1   
    30   24   30 1   
    31   24   31 1   
    32   25   32 1   
    33   25   33 1   
    34   25   34 1   
    35   26   35 1   
    36   26   36 1   
    37   26   37 1   
    38   38   39 1   
    39   38   46 1   
    40   39   40 1   
    41   39   42 1   
    42   39   47 1   
    43   40   41 2   
    44   40   50 1   
    45   42   43 1   
    46   42   48 1   
    47   42   49 1   
    48   43   44 1   
    49   43   45 1   
    50   50   51 1   
    51   50   54 1   
    52   51   52 1   
    53   51   55 1   
    54   51   56 1   
    55   52   53 2   
    56   52   57 1   
    57   57   58 1   
    58   57   65 1   
    59   58   59 1   
    60   58   61 1   
    61   58   66 1   
    62   59   60 2   
    63   59   69 1   
    64   61   62 1   
    65   61   67 1   
    66   61   68 1   
    67   62   63 1   
    68   62   64 1   
    69   69   70 1   
    70   69   73 1   
    71   70   71 1   
    72   70   74 1   
    73   70   75 1   
    74   71   72 2   
    75   71   76 1   
    76   76   77 1   
    77   76   85 1   
    78   77   78 1   
    79   77   80 1   
    80   77   86 1   
    81   78   79 2   
    82   78   93 1   
    83   80   81 1   
    84   80   87 1   
    85   80   88 1   
    86   81   82 1   
    87   81   89 1   
    88   81   90 1   
    89   82   83 1   
    90   82   84 2   
    91   83   91 1   
    92   83   92 1   
    93   93   94 1   
    94   93  100 1   
    95   94   95 1   
    96   94   97 1   
    97   94  101 1   
    98   95   96 2   
    99   95  109 1   
   100   97   98 1   
   101   97   99 1   
   102   97  102 1   
   103   98  103 1   
   104   98  104 1   
   105   98  105 1   
   106   99  106 1   
   107   99  107 1   
   108   99  108 1   
   109  109  110 1   
   110  109  117 1   
   111  110  111 1   
   112  110  113 1   
   113  110  118 1   
   114  111  112 2   
   115  111  123 1   
   116  113  114 1   
   117  113  119 1   
   118  113  120 1   
   119  114  115 1   
   120  114  116 2   
   121  115  121 1   
   122  115  122 1   
   123  123  124 1   
   124  123  135 1   
   125  124  125 1   
   126  124  127 1   
   127  124  136 1   
   128  125  126 2   
   129  125  144 1   
   130  127  128 1   
   131  127  137 1   
   132  127  138 1   
   133  128  129 ar  
   134  128  130 ar  
   135  129  131 ar  
   136  129  139 1   
   137  130  132 ar  
   138  130  140 1   
   139  131  133 ar  
   140  131  141 1   
   141  132  133 ar  
   142  132  142 1   
   143  133  134 1   
   144  134  143 1   
   145  144  145 1   
   146  144  153 1   
   147  145  146 1   
   148  145  148 1   
   149  145  154 1   
   150  146  147 2   
   151  146  159 1   
   152  148  149 1   
   153  148  155 1   
   154  148  156 1   
   155  149  150 1   
   156  149  157 1   
   157  149  158 1   
   158  150  151 1   
   159  150  152 1   
   160  159  160 1   
   161  159  168 1   
   162  160  161 1   
   163  160  163 1   
   164  160  169 1   
   165  161  162 2   
   166  161  174 1   
   167  163  164 1   
   168  163  170 1   
   169  163  171 1   
   170  164  165 1   
   171  164  172 1   
   172  164  173 1   
   173  165  166 1   
   174  165  167 1   
   175  174  175 1   
   176  174  179 1   
   177  175  176 1   
   178  175  177 1   
   179  175  178 1   
   180  181  182 1   
   181  181  183 1   
   182  184  185 1   
   183  184  186 1   
@<TRIPOS>SUBSTRUCTURE
     1 MOL         1 TEMP              0 ****  ****    0 ROOT
