@<TRIPOS>MOLECULE
MOL
  176   174     1     0     0
SMALL
resp


@<TRIPOS>ATOM
      1 C1          2.5540    2.6570    5.2790 c3        1 MOL     -0.231175
      2 C2          1.8960    2.3780    3.8720 c         1 MOL      0.623327
      3 O1          2.5400    1.8840    2.9770 o         1 MOL     -0.546931
      4 H1          1.7710    2.7880    6.0250 hc        1 MOL      0.060112
      5 H2          3.1850    1.8130    5.5590 hc        1 MOL      0.060112
      6 H3          3.1600    3.5620    5.2250 hc        1 MOL      0.060112
      7 N1          0.6090    2.7770    3.7080 n         1 MOL     -0.558452
      8 C3         -0.0750    2.5830    2.4050 c3        1 MOL     -0.000027
      9 C4          0.1680    3.8020    1.4790 c         1 MOL      0.362398
     10 O2         -0.5690    4.8360    1.6200 o         1 MOL     -0.492559
     11 C5         -1.5820    2.3940    2.7220 c3        1 MOL     -0.012933
     12 C6         -2.4200    2.0200    1.4720 c         1 MOL      0.766083
     13 O3         -1.8440    1.6880    0.3970 o         1 MOL     -0.771434
     14 O4         -3.6540    2.0790    1.5460 o         1 MOL     -0.771434
     15 H4          0.0800    3.2450    4.4210 hn        1 MOL      0.334012
     16 H5          0.4180    1.7100    1.9740 h1        1 MOL      0.010526
     17 H6         -1.9720    3.3030    3.1800 hc        1 MOL      0.022673
     18 H7         -1.6690    1.5730    3.4320 hc        1 MOL      0.022673
     19 N2          1.1530    3.7230    0.5540 n         1 MOL     -0.142900
     20 C7          1.6970    4.8980   -0.0710 c3        1 MOL     -0.088256
     21 C8          0.8190    5.4160   -1.2730 c         1 MOL      0.339308
     22 O5          0.7590    6.6020   -1.6020 o         1 MOL     -0.532198
     23 C9          3.1200    4.6270   -0.5910 c3        1 MOL     -0.133017
     24 C10         4.1040    4.1780    0.5350 c3        1 MOL     -0.001426
     25 C11         4.1650    5.0010    1.9060 c3        1 MOL     -0.072821
     26 C12         4.2410    6.4990    1.7350 c3        1 MOL      0.149090
     27 N3          4.2170    7.2950    2.9750 n4        1 MOL     -0.504760
     28 H8          1.5080    2.8010    0.3420 hn        1 MOL      0.319344
     29 H9          1.7910    5.7450    0.6080 h1        1 MOL      0.075793
     30 H10         3.5280    5.5410   -1.0270 hc        1 MOL      0.071329
     31 H11         3.0240    3.8850   -1.3840 hc        1 MOL      0.071329
     32 H12         5.0770    4.3580    0.0940 hc        1 MOL      0.040323
     33 H13         4.0040    3.1430    0.8660 hc        1 MOL      0.040323
     34 H14         5.0300    4.6670    2.4700 hc        1 MOL      0.044556
     35 H15         3.3610    4.7250    2.5860 hc        1 MOL      0.044556
     36 H16         3.4440    6.7820    1.0570 hx        1 MOL      0.060251
     37 H17         5.1370    6.8040    1.2010 hx        1 MOL      0.060251
     38 H18         5.1500    7.4220    3.3350 hn        1 MOL      0.360743
     39 H19         3.9050    8.2490    2.8510 hn        1 MOL      0.360743
     40 H20         3.5290    6.9030    3.6030 hn        1 MOL      0.360743
     41 N4         -0.0160    4.5070   -1.8020 n         1 MOL     -0.072891
     42 C13        -1.0470    4.8790   -2.8370 c3        1 MOL      0.089777
     43 C14        -2.5200    5.0180   -2.2710 c         1 MOL      0.384843
     44 O6         -3.3900    5.4840   -2.9970 o         1 MOL     -0.518936
     45 C15        -0.9250    3.8780   -3.9710 c3        1 MOL     -0.152838
     46 C16        -1.3210    2.4430   -3.5380 c         1 MOL      0.869613
     47 O7         -0.7080    1.4100   -3.9770 o         1 MOL     -0.814929
     48 O8         -2.1610    2.2510   -2.7060 o         1 MOL     -0.814929
     49 H21         0.0960    3.5660   -1.4570 hn        1 MOL      0.099856
     50 H22        -0.8300    5.8880   -3.1980 h1        1 MOL      0.078494
     51 H23         0.1260    3.9620   -4.2430 hc        1 MOL      0.026624
     52 H24        -1.5580    4.1810   -4.8050 hc        1 MOL      0.026624
     53 N5         -2.6670    4.6180   -0.9730 n         1 MOL     -0.046188
     54 C17        -3.8730    4.7780   -0.1740 c3        1 MOL     -0.333584
     55 C18        -5.0450    3.7810   -0.4430 c         1 MOL      0.667646
     56 O9         -6.1310    3.9620    0.1300 o         1 MOL     -0.607261
     57 H25        -1.8160    4.3400   -0.4960 hn        1 MOL      0.051312
     58 H26        -4.2200    5.8100   -0.2910 h1        1 MOL      0.145037
     59 H27        -3.4960    4.5820    0.8360 h1        1 MOL      0.145037
     60 N6         -4.8230    2.7010   -1.2300 n         1 MOL     -0.469643
     61 C19        -5.8880    1.8650   -1.7210 c3        1 MOL      0.000035
     62 C20        -6.5870    0.9490   -0.6600 c         1 MOL      0.382326
     63 O10        -7.3480    0.0700   -0.9720 o         1 MOL     -0.493615
     64 C21        -5.4540    1.1250   -2.9330 c3        1 MOL     -0.360186
     65 C22        -4.7810   -0.1900   -2.6780 c         1 MOL      0.636729
     66 N7         -5.1720   -1.2500   -3.3710 n         1 MOL     -0.731469
     67 O11        -3.9040   -0.3600   -1.8640 o         1 MOL     -0.583192
     68 H28        -3.9000    2.5810   -1.6070 hn        1 MOL      0.354861
     69 H29        -6.6320    2.5820   -2.0890 h1        1 MOL      0.127075
     70 H30        -4.8030    1.7660   -3.5220 hc        1 MOL      0.142061
     71 H31        -6.3530    1.0360   -3.5440 hc        1 MOL      0.142061
     72 H32        -6.0130   -1.1750   -3.9340 hn        1 MOL      0.352015
     73 H33        -4.7780   -2.1440   -3.1410 hn        1 MOL      0.352015
     74 N8         -6.1500    1.0540    0.6040 n         1 MOL     -0.183846
     75 C23        -6.4230    0.2100    1.8410 c3        1 MOL     -0.399729
     76 C24        -5.7530   -1.1900    1.9610 c         1 MOL      0.582294
     77 O12        -6.1890   -2.0380    2.7720 o         1 MOL     -0.576922
     78 H34        -5.4210    1.7410    0.7680 hn        1 MOL      0.363931
     79 H35        -7.4940    0.0320    1.8660 h1        1 MOL      0.165850
     80 H36        -6.1220    0.7710    2.7220 h1        1 MOL      0.165850
     81 N9         -4.6710   -1.4140    1.2510 n         1 MOL     -0.115984
     82 C25        -3.8130   -2.6490    1.3640 c3        1 MOL     -0.235799
     83 C26        -2.3450   -2.2340    1.2620 c         1 MOL      0.834053
     84 O13        -2.0140   -1.3440    0.4940 o         1 MOL     -0.659887
     85 C27        -4.1440   -3.5430    0.2270 c3        1 MOL     -0.029226
     86 C28        -5.3990   -4.4120    0.3620 ca        1 MOL     -0.032235
     87 C29        -6.3860   -4.4130   -0.6210 ca        1 MOL     -0.025029
     88 C30        -5.4400   -5.3600    1.4200 ca        1 MOL     -0.025029
     89 C31        -7.3760   -5.3860   -0.6030 ca        1 MOL     -0.413715
     90 C32        -6.4510   -6.3750    1.3720 ca        1 MOL     -0.413715
     91 C33        -7.4420   -6.3450    0.3780 ca        1 MOL      0.515013
     92 O14        -8.3730   -7.3270    0.3160 oh        1 MOL     -0.530998
     93 H37        -4.3700   -0.6310    0.6870 hn        1 MOL      0.161308
     94 H38        -3.8930   -3.2550    2.2720 h1        1 MOL      0.086125
     95 H39        -3.2790   -4.2050    0.1150 hc        1 MOL      0.029669
     96 H40        -4.1680   -3.0220   -0.7300 hc        1 MOL      0.029669
     97 H41        -6.4320   -3.5910   -1.3210 ha        1 MOL      0.118430
     98 H42        -4.6370   -5.4850    2.1300 ha        1 MOL      0.118430
     99 H43        -8.2200   -5.3220   -1.2840 ha        1 MOL      0.170680
    100 H44        -6.4250   -7.0840    2.1860 ha        1 MOL      0.170680
    101 H45        -8.4160   -7.8210    1.1310 ho        1 MOL      0.368444
    102 N10        -1.4470   -2.7110    2.1630 n         1 MOL     -0.625596
    103 C34         0.0110   -2.5110    2.0930 c3        1 MOL     -0.074523
    104 C35         0.6710   -3.6730    1.3090 c         1 MOL      0.703568
    105 O15         0.1380   -4.7850    1.3390 o         1 MOL     -0.585144
    106 C36         0.4880   -2.2970    3.5800 c3        1 MOL      0.047833
    107 C37        -0.0780   -1.0090    4.2000 c3        1 MOL      0.104355
    108 C38         2.0140   -2.3110    3.6180 c3        1 MOL     -0.201011
    109 C39        -0.2180   -1.2360    5.6980 c3        1 MOL     -0.249284
    110 H46        -1.7610   -3.4090    2.8250 hn        1 MOL      0.336369
    111 H47         0.2280   -1.6960    1.3990 h1        1 MOL      0.075541
    112 H48         0.1400   -3.2110    4.0690 hc        1 MOL      0.048621
    113 H49        -1.0390   -0.7900    3.7360 hc        1 MOL      0.041169
    114 H50         0.7130   -0.2600    4.1290 hc        1 MOL      0.041169
    115 H51         2.4700   -1.9480    4.5400 hc        1 MOL      0.051015
    116 H52         2.3020   -3.3580    3.5580 hc        1 MOL      0.051015
    117 H53         2.4940   -1.7440    2.8220 hc        1 MOL      0.051015
    118 H54        -0.6290   -0.2910    6.0500 hc        1 MOL      0.051062
    119 H55        -0.9420   -2.0500    5.7470 hc        1 MOL      0.051062
    120 H56         0.7190   -1.5680    6.1430 hc        1 MOL      0.051062
    121 N11         1.7410   -3.3650    0.5690 n         1 MOL     -0.431243
    122 C40         2.4220   -4.2950   -0.4010 c3        1 MOL     -0.072197
    123 C41         3.9680   -4.2330   -0.3360 c         1 MOL      0.573847
    124 O16         4.5240   -3.3240    0.2780 o         1 MOL     -0.538379
    125 C42         1.9940   -3.9010   -1.8640 c3        1 MOL     -0.024003
    126 O17         2.5330   -2.6940   -2.2830 oh        1 MOL     -0.506876
    127 H57         2.1110   -2.4270    0.6640 hn        1 MOL      0.316925
    128 H58         2.0930   -5.3040   -0.1770 h1        1 MOL      0.077978
    129 H59         0.9010   -3.8550   -1.8020 h1        1 MOL      0.089543
    130 H60         2.0670   -4.7210   -2.5670 h1        1 MOL      0.089543
    131 H61         1.9460   -2.0390   -1.9110 ho        1 MOL      0.322735
    132 N12         4.7270   -5.1740   -0.9360 n         1 MOL     -0.450330
    133 C43         6.2150   -5.3000   -0.8050 c3        1 MOL      0.017538
    134 C44         6.9380   -4.0820   -1.3350 c         1 MOL      0.501055
    135 O18         7.9860   -3.7310   -0.8100 o         1 MOL     -0.512368
    136 C45         6.7150   -6.6710   -1.2730 c3        1 MOL     -0.339940
    137 H62         4.2560   -5.9500   -1.3810 hn        1 MOL      0.285464
    138 H63         6.3550   -5.3040    0.2810 h1        1 MOL      0.134937
    139 H64         6.5140   -6.8970   -2.3220 hc        1 MOL      0.115515
    140 H65         7.7750   -6.7010   -1.0130 hc        1 MOL      0.115515
    141 H66         6.2960   -7.5240   -0.7350 hc        1 MOL      0.115515
    142 N13         6.4690   -3.3340   -2.3830 n         1 MOL     -0.365188
    143 C46         7.1300   -2.1440   -2.9320 c3        1 MOL      0.150995
    144 C47         7.0620   -0.9600   -1.9430 c         1 MOL      0.305767
    145 O19         8.0190   -0.2930   -1.6360 o         1 MOL     -0.472438
    146 C48         6.5290   -1.8690   -4.3130 c3        1 MOL     -0.283336
    147 H67         5.6550   -3.6700   -2.8810 hn        1 MOL      0.247475
    148 H68         8.1730   -2.4340   -3.0230 h1        1 MOL      0.070062
    149 H69         5.5230   -1.4870   -4.1540 hc        1 MOL      0.083772
    150 H70         7.1790   -1.1070   -4.7400 hc        1 MOL      0.083772
    151 H71         6.6930   -2.8110   -4.8350 hc        1 MOL      0.083772
    152 N14         5.8860   -0.8280   -1.3100 n         1 MOL      0.057494
    153 C49         5.5570    0.1920   -0.3590 c3        1 MOL     -0.307396
    154 C50         6.3830   -0.0120    0.8830 c         1 MOL      0.463006
    155 O20         6.8880    1.0040    1.3900 o         1 MOL     -0.546820
    156 C51         3.9830    0.2140   -0.0910 c3        1 MOL      0.008518
    157 C52         3.2170    0.5110   -1.4270 c3        1 MOL     -0.265786
    158 C53         1.7660    0.4200   -1.1950 c         1 MOL      0.939808
    159 O21         1.0680    1.4480   -1.2160 o         1 MOL     -0.818715
    160 O22         1.1650   -0.6730   -1.0700 o         1 MOL     -0.818715
    161 H72         5.1380   -1.4360   -1.5950 hn        1 MOL      0.120580
    162 H73         5.7600    1.1720   -0.7920 h1        1 MOL      0.146291
    163 H74         3.8060    0.9670    0.6740 hc        1 MOL      0.037275
    164 H75         3.7310   -0.7670    0.2990 hc        1 MOL      0.037275
    165 H76         3.4190   -0.2520   -2.1690 hc        1 MOL      0.068095
    166 H77         3.4470    1.4970   -1.8340 hc        1 MOL      0.068095
    167 N15         6.7640   -1.2610    1.2100 n         1 MOL     -0.089172
    168 C54         7.7360   -1.6010    2.2130 c3        1 MOL     -0.289152
    169 H78         7.3540   -1.3240    3.1960 h1        1 MOL      0.114037
    170 H79         7.9260   -2.6740    2.1870 h1        1 MOL      0.114037
    171 H80         8.6630   -1.0620    2.0190 h1        1 MOL      0.114037
    172 H81         6.3370   -1.9610    0.6300 hn        1 MOL      0.158233
    173 Ca1        -1.2750    0.1440   -1.5730 Ca        1 MOL      1.765848
    174 O23        -1.4360   -2.1450   -2.9580 oh        1 MOL     -0.845890
    175 H82        -1.3700   -3.1040   -2.8900 ho        1 MOL      0.420609
    176 H83        -1.5860   -1.9840   -3.8850 ho        1 MOL      0.420609
@<TRIPOS>BOND
     1    1    2 1   
     2    1    4 1   
     3    1    5 1   
     4    1    6 1   
     5    2    3 2   
     6    2    7 1   
     7    7    8 1   
     8    7   15 1   
     9    8    9 1   
    10    8   11 1   
    11    8   16 1   
    12    9   10 2   
    13    9   19 1   
    14   11   12 1   
    15   11   17 1   
    16   11   18 1   
    17   12   13 1   
    18   12   14 1   
    19   19   20 1   
    20   19   28 1   
    21   20   21 1   
    22   20   23 1   
    23   20   29 1   
    24   21   22 2   
    25   21   41 1   
    26   23   24 1   
    27   23   30 1   
    28   23   31 1   
    29   24   25 1   
    30   24   32 1   
    31   24   33 1   
    32   25   26 1   
    33   25   34 1   
    34   25   35 1   
    35   26   27 1   
    36   26   36 1   
    37   26   37 1   
    38   27   38 1   
    39   27   39 1   
    40   27   40 1   
    41   41   42 1   
    42   41   49 1   
    43   42   43 1   
    44   42   45 1   
    45   42   50 1   
    46   43   44 2   
    47   43   53 1   
    48   45   46 1   
    49   45   51 1   
    50   45   52 1   
    51   46   47 1   
    52   46   48 1   
    53   53   54 1   
    54   53   57 1   
    55   54   55 1   
    56   54   58 1   
    57   54   59 1   
    58   55   56 2   
    59   55   60 1   
    60   60   61 1   
    61   60   68 1   
    62   61   62 1   
    63   61   64 1   
    64   61   69 1   
    65   62   63 2   
    66   62   74 1   
    67   64   65 1   
    68   64   70 1   
    69   64   71 1   
    70   65   66 1   
    71   65   67 2   
    72   66   72 1   
    73   66   73 1   
    74   74   75 1   
    75   74   78 1   
    76   75   76 1   
    77   75   79 1   
    78   75   80 1   
    79   76   77 2   
    80   76   81 1   
    81   81   82 1   
    82   81   93 1   
    83   82   83 1   
    84   82   85 1   
    85   82   94 1   
    86   83   84 2   
    87   83  102 1   
    88   85   86 1   
    89   85   95 1   
    90   85   96 1   
    91   86   87 ar  
    92   86   88 ar  
    93   87   89 ar  
    94   87   97 1   
    95   88   90 ar  
    96   88   98 1   
    97   89   91 ar  
    98   89   99 1   
    99   90   91 ar  
   100   90  100 1   
   101   91   92 1   
   102   92  101 1   
   103  102  103 1   
   104  102  110 1   
   105  103  104 1   
   106  103  106 1   
   107  103  111 1   
   108  104  105 2   
   109  104  121 1   
   110  106  107 1   
   111  106  108 1   
   112  106  112 1   
   113  107  109 1   
   114  107  113 1   
   115  107  114 1   
   116  108  115 1   
   117  108  116 1   
   118  108  117 1   
   119  109  118 1   
   120  109  119 1   
   121  109  120 1   
   122  121  122 1   
   123  121  127 1   
   124  122  123 1   
   125  122  125 1   
   126  122  128 1   
   127  123  124 2   
   128  123  132 1   
   129  125  126 1   
   130  125  129 1   
   131  125  130 1   
   132  126  131 1   
   133  132  133 1   
   134  132  137 1   
   135  133  134 1   
   136  133  136 1   
   137  133  138 1   
   138  134  135 2   
   139  134  142 1   
   140  136  139 1   
   141  136  140 1   
   142  136  141 1   
   143  142  143 1   
   144  142  147 1   
   145  143  144 1   
   146  143  146 1   
   147  143  148 1   
   148  144  145 2   
   149  144  152 1   
   150  146  149 1   
   151  146  150 1   
   152  146  151 1   
   153  152  153 1   
   154  152  161 1   
   155  153  154 1   
   156  153  156 1   
   157  153  162 1   
   158  154  155 2   
   159  154  167 1   
   160  156  157 1   
   161  156  163 1   
   162  156  164 1   
   163  157  158 1   
   164  157  165 1   
   165  157  166 1   
   166  158  159 1   
   167  158  160 1   
   168  167  168 1   
   169  167  172 1   
   170  168  169 1   
   171  168  170 1   
   172  168  171 1   
   173  174  175 1   
   174  174  176 1   
@<TRIPOS>SUBSTRUCTURE
     1 MOL         1 TEMP              0 ****  ****    0 ROOT
