@<TRIPOS>MOLECULE
MOL
  189   185     1     0     0
SMALL
resp


@<TRIPOS>ATOM
      1 C1         -1.0570    1.3560    6.1120 c3        1 MOL     -0.424325
      2 C2         -1.0820    1.1060    4.6190 c         1 MOL      0.894906
      3 O1         -0.0550    1.0950    3.9920 o         1 MOL     -0.611801
      4 H1         -0.1270    1.8570    6.3810 hc        1 MOL      0.092553
      5 H2         -1.9020    1.9850    6.3890 hc        1 MOL      0.092553
      6 H3         -1.1230    0.4050    6.6400 hc        1 MOL      0.092553
      7 N1         -2.2840    0.8880    4.1130 n         1 MOL     -0.776761
      8 C3         -2.5950    1.1790    2.7160 c3        1 MOL      0.258929
      9 C4         -2.6160    2.6920    2.3550 c         1 MOL      0.292158
     10 O2         -3.2780    3.4790    3.0690 o         1 MOL     -0.571434
     11 C5         -3.9830    0.5330    2.3490 c3        1 MOL      0.009159
     12 C6         -4.3730    0.8200    0.8900 c         1 MOL      0.628118
     13 O3         -3.5190    0.9560   -0.0290 o         1 MOL     -0.648485
     14 O4         -5.6310    0.8400    0.7220 o         1 MOL     -0.648485
     15 H4         -3.0540    0.8700    4.7700 hn        1 MOL      0.356052
     16 H5         -1.7910    0.7860    2.0970 h1        1 MOL      0.053364
     17 H6         -4.7490    0.8900    3.0360 hc        1 MOL     -0.011859
     18 H7         -3.8930   -0.5540    2.4350 hc        1 MOL     -0.011859
     19 N2         -1.7910    3.1230    1.3740 n         1 MOL      0.015412
     20 C7         -1.6400    4.5560    0.9570 c3        1 MOL      0.032343
     21 C8         -2.3070    4.9110   -0.3750 c         1 MOL      0.632248
     22 O5         -2.0610    5.9960   -0.8750 o         1 MOL     -0.579854
     23 C9         -0.1570    4.9420    0.9600 c3        1 MOL     -0.001988
     24 C10         0.6480    4.5210    2.1910 c3        1 MOL     -0.013764
     25 C11         0.1020    5.2120    3.3960 c3        1 MOL     -0.076158
     26 C12         0.8610    4.9020    4.6990 c3        1 MOL      0.119909
     27 N3          0.2000    5.6590    5.7570 n4        1 MOL     -0.376731
     28 H8         -1.3080    2.3710    0.8850 hn        1 MOL      0.058012
     29 H9         -2.1130    5.3190    1.5860 h1        1 MOL      0.002425
     30 H10        -0.0620    5.9960    0.6950 hc        1 MOL      0.011798
     31 H11         0.3220    4.4530    0.1090 hc        1 MOL      0.011798
     32 H12         1.6880    4.8170    2.0090 hc        1 MOL      0.019034
     33 H13         0.6560    3.4330    2.2720 hc        1 MOL      0.019034
     34 H14        -0.9370    4.8930    3.5100 hc        1 MOL      0.034722
     35 H15         0.2130    6.2790    3.1810 hc        1 MOL      0.034722
     36 H16         1.9340    5.0960    4.6420 hx        1 MOL      0.059450
     37 H17         0.6950    3.8470    4.9250 hx        1 MOL      0.059450
     38 H18         0.2840    6.6660    5.7720 hn        1 MOL      0.320352
     39 H19        -0.7900    5.4480    5.7400 hn        1 MOL      0.320352
     40 H20         0.4730    5.3700    6.6870 hn        1 MOL      0.320352
     41 N4         -3.0590    4.0280   -1.0200 n         1 MOL     -0.576041
     42 C13        -3.6220    4.2550   -2.4270 c3        1 MOL      0.127413
     43 C14        -5.0260    3.5800   -2.5480 c         1 MOL      0.442020
     44 O6         -5.6340    3.7140   -3.5820 o         1 MOL     -0.503803
     45 C15        -2.6990    3.6670   -3.4460 c3        1 MOL     -0.177992
     46 C16        -2.1540    2.3140   -3.0310 c         1 MOL      0.780011
     47 O7         -2.8130    1.2630   -3.1510 o         1 MOL     -0.753934
     48 O8         -1.0400    2.2320   -2.5670 o         1 MOL     -0.753934
     49 H21        -3.2320    3.1100   -0.6350 hn        1 MOL      0.226891
     50 H22        -3.7490    5.2960   -2.7350 h1        1 MOL      0.088118
     51 H23        -1.8120    4.2910   -3.5170 hc        1 MOL      0.039839
     52 H24        -3.2060    3.5450   -4.4050 hc        1 MOL      0.039839
     53 N5         -5.5530    2.8960   -1.4860 n         1 MOL     -0.351634
     54 C17        -6.9760    2.5500   -1.4630 c3        1 MOL     -0.153510
     55 C18        -7.3740    1.1340   -1.9580 c         1 MOL      0.565303
     56 O9         -8.5370    0.8690   -2.1760 o         1 MOL     -0.580413
     57 H25        -4.9900    2.7090   -0.6650 hn        1 MOL      0.261940
     58 H26        -7.5700    3.2980   -1.9870 h1        1 MOL      0.097762
     59 H27        -7.3000    2.6500   -0.4280 h1        1 MOL      0.097762
     60 N6         -6.3370    0.2840   -1.9520 n         1 MOL     -0.304458
     61 C19        -6.4780   -1.1840   -2.3060 c3        1 MOL     -0.071110
     62 C20        -6.6030   -2.1530   -1.1760 c         1 MOL      0.445769
     63 O10        -6.7840   -3.3730   -1.3340 o         1 MOL     -0.540227
     64 C21        -5.3170   -1.6340   -3.2660 c3        1 MOL     -0.127039
     65 C22        -3.8960   -1.5670   -2.7220 c         1 MOL      0.703373
     66 O11        -3.6600   -1.7060   -1.5220 o         1 MOL     -0.701123
     67 O12        -2.9610   -1.4500   -3.4890 o         1 MOL     -0.701123
     68 H28        -5.4080    0.5880   -1.6810 hn        1 MOL      0.285155
     69 H29        -7.3900   -1.3090   -2.8810 h1        1 MOL      0.124414
     70 H30        -5.3780   -1.1660   -4.2500 hc        1 MOL      0.041186
     71 H31        -5.4800   -2.7000   -3.4160 hc        1 MOL      0.041186
     72 N7         -6.5360   -1.6010    0.0390 n         1 MOL     -0.257172
     73 C23        -6.6440   -2.3660    1.3030 c3        1 MOL      0.024564
     74 C24        -5.4790   -3.3940    1.4330 c         1 MOL      0.355416
     75 O13        -5.6970   -4.5030    1.9510 o         1 MOL     -0.531673
     76 H32        -6.4120   -0.6020    0.1140 hn        1 MOL      0.216531
     77 H33        -7.6530   -2.7380    1.5120 h1        1 MOL      0.046367
     78 H34        -6.3780   -1.6660    2.0920 h1        1 MOL      0.046367
     79 N8         -4.3000   -3.1010    0.8110 n         1 MOL      0.038006
     80 C25        -3.0970   -3.9740    0.9590 c3        1 MOL     -0.310742
     81 C26        -1.7610   -3.2530    0.9300 c         1 MOL      0.511888
     82 O14        -1.7540   -2.0390    0.6630 o         1 MOL     -0.623011
     83 C27        -3.1330   -5.0210   -0.1250 c3        1 MOL      0.340677
     84 C28        -4.3500   -5.9390   -0.2740 c3        1 MOL     -0.424532
     85 O15        -2.9310   -4.4060   -1.3620 oh        1 MOL     -0.638295
     86 H35        -4.2090   -2.2390    0.3040 hn        1 MOL      0.155594
     87 H36        -3.1560   -4.4910    1.9170 h1        1 MOL      0.102303
     88 H37        -2.3550   -5.7790   -0.0490 h1        1 MOL      0.055327
     89 H38        -3.5360   -3.6680   -1.4300 ho        1 MOL      0.425890
     90 H39        -4.6660   -6.3580    0.6790 hc        1 MOL      0.116379
     91 H40        -5.1870   -5.3500   -0.6650 hc        1 MOL      0.116379
     92 H41        -4.0460   -6.7690   -0.8980 hc        1 MOL      0.116379
     93 N9         -0.6780   -3.9790    1.1510 n         1 MOL     -0.358713
     94 C29         0.6200   -3.3360    1.4680 c3        1 MOL     -0.030086
     95 C30         1.6840   -3.8420    0.4890 c         1 MOL      0.436649
     96 O16         1.7870   -5.1010    0.2850 o         1 MOL     -0.555194
     97 C31         0.9140   -3.6230    2.9590 c3        1 MOL      0.047144
     98 C32        -0.2700   -3.1560    3.8740 c3        1 MOL      0.180600
     99 C33         2.2860   -3.1550    3.4290 c3        1 MOL     -0.336973
    100 C34        -0.1700   -3.7040    5.3410 c3        1 MOL     -0.135498
    101 H42        -0.6410   -4.9840    1.2050 hn        1 MOL      0.256726
    102 H43         0.5720   -2.2460    1.3580 h1        1 MOL      0.138111
    103 H44         0.9500   -4.7080    3.0740 hc        1 MOL      0.006545
    104 H45        -1.2250   -3.4950    3.4770 hc        1 MOL     -0.018839
    105 H46        -0.2010   -2.0710    3.9310 hc        1 MOL     -0.018839
    106 H47         2.1800   -2.1360    3.8160 hc        1 MOL      0.086413
    107 H48         2.6710   -3.6450    4.3150 hc        1 MOL      0.086413
    108 H49         3.0230   -3.2490    2.6290 hc        1 MOL      0.086413
    109 H50        -0.2450   -4.7870    5.3660 hc        1 MOL      0.026859
    110 H51         0.6680   -3.3640    5.9530 hc        1 MOL      0.026859
    111 H52        -1.0930   -3.3410    5.8100 hc        1 MOL      0.026859
    112 N10         2.4600   -2.9760   -0.1690 n         1 MOL     -0.012220
    113 C35         3.5780   -3.3280   -1.0530 c3        1 MOL     -0.119478
    114 C36         4.8560   -2.7150   -0.5810 c         1 MOL      0.297829
    115 O17         4.9060   -1.9140    0.3780 o         1 MOL     -0.307053
    116 C37         3.2590   -2.7130   -2.4890 c3        1 MOL      0.330375
    117 C38         2.0430   -3.3210   -3.1560 c3        1 MOL     -0.296368
    118 O18         2.9790   -1.3330   -2.3550 oh        1 MOL     -0.682238
    119 H53         2.3200   -1.9750   -0.0350 hn        1 MOL      0.085152
    120 H54         3.7750   -4.4020   -1.0830 h1        1 MOL      0.079689
    121 H55         4.1170   -2.8150   -3.1580 h1        1 MOL      0.038254
    122 H56         2.1910   -1.1960   -1.8210 ho        1 MOL      0.457731
    123 H57         2.4490   -4.0140   -3.8890 hc        1 MOL      0.074155
    124 H58         1.4540   -3.9050   -2.4520 hc        1 MOL      0.074155
    125 H59         1.3360   -2.6240   -3.6280 hc        1 MOL      0.074155
    126 N11         5.9620   -2.9820   -1.2990 n         1 MOL     -0.158537
    127 C39         7.2320   -2.3660   -0.9030 c3        1 MOL     -0.474220
    128 C40         7.2770   -0.8630   -0.8930 c         1 MOL      0.635323
    129 O19         8.1860   -0.3390   -0.2520 o         1 MOL     -0.544419
    130 C41         8.4150   -2.8610   -1.8320 c3        1 MOL      0.403271
    131 C42         8.6220   -4.3530   -1.5560 c3        1 MOL     -0.475505
    132 O20         8.1600   -2.6940   -3.2070 oh        1 MOL     -0.647911
    133 H60         5.9430   -3.5550   -2.1350 hn        1 MOL      0.255623
    134 H61         7.4170   -2.7930    0.0780 h1        1 MOL      0.230526
    135 H62         9.3090   -2.2640   -1.6920 h1        1 MOL      0.043212
    136 H63         8.9330   -2.9330   -3.7120 ho        1 MOL      0.420443
    137 H64         9.5380   -4.5320   -2.1110 hc        1 MOL      0.128117
    138 H65         8.7920   -4.4550   -0.4890 hc        1 MOL      0.128117
    139 H66         7.7890   -4.9270   -1.9710 hc        1 MOL      0.128117
    140 N12         6.3020   -0.1170   -1.4850 n         1 MOL     -0.394079
    141 C43         6.1860    1.3570   -1.4300 c3        1 MOL     -0.169135
    142 C44         5.7420    1.8400   -0.0350 c         1 MOL      0.517226
    143 O21         6.0190    3.0110    0.3600 o         1 MOL     -0.569361
    144 C45         5.2150    1.8230   -2.5330 c3        1 MOL     -0.059628
    145 C46         5.1200    3.3200   -2.7940 c3        1 MOL     -0.018661
    146 C47         6.4330    3.8190   -3.3260 c3        1 MOL      0.014260
    147 C48         6.3200    5.2760   -3.4360 c3        1 MOL     -0.019765
    148 N13         7.5390    6.0710   -3.4290 n4        1 MOL     -0.195575
    149 H67         5.5340   -0.4990   -2.0220 hn        1 MOL      0.284701
    150 H68         7.1900    1.7770   -1.4220 h1        1 MOL      0.131526
    151 H69         4.2380    1.4650   -2.2200 hc        1 MOL      0.076096
    152 H70         5.3860    1.3760   -3.5150 hc        1 MOL      0.076096
    153 H71         4.8430    3.7790   -1.8540 hc        1 MOL      0.039329
    154 H72         4.3320    3.5480   -3.5170 hc        1 MOL      0.039329
    155 H73         6.6560    3.2930   -4.2610 hc        1 MOL      0.020786
    156 H74         7.2690    3.5440   -2.6860 hc        1 MOL      0.020786
    157 H75         5.6700    5.5680   -2.6020 hx        1 MOL      0.083150
    158 H76         5.8350    5.5100   -4.3870 hx        1 MOL      0.083150
    159 H77         7.3910    7.0650   -3.3090 hn        1 MOL      0.288736
    160 H78         8.2730    5.7580   -2.8000 hn        1 MOL      0.288736
    161 H79         7.9680    5.9440   -4.3290 hn        1 MOL      0.288736
    162 N14         5.1670    0.9470    0.7250 n         1 MOL     -0.179834
    163 C49         4.3750    1.1110    1.9580 c3        1 MOL     -0.265728
    164 C50         4.9160    0.3480    3.1640 c         1 MOL      0.574122
    165 O22         4.7200    0.7080    4.2950 o         1 MOL     -0.565975
    166 C51         2.9240    0.6610    1.7170 c3        1 MOL      0.334209
    167 C52         2.1980    1.3060    0.5130 c3        1 MOL     -0.021926
    168 C53         0.9260    0.5450    0.1460 c         1 MOL      0.525031
    169 O23         1.0450   -0.6050   -0.3420 o         1 MOL     -0.626901
    170 O24        -0.2160    1.0890    0.2540 o         1 MOL     -0.626901
    171 H80         5.0020    0.0410    0.3180 hn        1 MOL      0.115296
    172 H81         4.3980    2.1870    2.1590 h1        1 MOL      0.102905
    173 H82         2.3580    0.9760    2.6010 hc        1 MOL     -0.062944
    174 H83         2.9460   -0.4270    1.7190 hc        1 MOL     -0.062944
    175 H84         2.8360    1.2490   -0.3710 hc        1 MOL      0.007057
    176 H85         2.1590    2.3830    0.6980 hc        1 MOL      0.007057
    177 N15         5.6410   -0.7120    2.9360 n         1 MOL     -0.267381
    178 C54         5.9320   -1.6630    3.9700 c3        1 MOL     -0.130225
    179 H86         7.0130   -1.7760    4.0650 h1        1 MOL      0.074792
    180 H87         5.5200   -1.3100    4.9160 h1        1 MOL      0.074792
    181 H88         5.4880   -2.6250    3.7160 h1        1 MOL      0.074792
    182 H89         5.8200   -1.0130    1.9940 hn        1 MOL      0.190380
    183 Ca1        -1.5080   -0.3370   -1.4010 Ca        1 MOL      1.763681
    184 O25        -0.8430   -2.8220   -2.1710 oh        1 MOL     -0.854133
    185 H90        -0.9990   -2.8660   -3.1110 ho        1 MOL      0.412048
    186 H91        -1.3220   -3.5770   -1.8100 ho        1 MOL      0.412048
    187 O26         0.0090   -0.5220   -3.7990 oh        1 MOL     -0.854133
    188 H92         0.0320    0.4070   -3.9850 ho        1 MOL      0.412048
    189 H93        -0.2770   -0.9310   -4.6180 ho        1 MOL      0.412048
@<TRIPOS>BOND
     1    1    2 1   
     2    1    4 1   
     3    1    5 1   
     4    1    6 1   
     5    2    3 2   
     6    2    7 1   
     7    7    8 1   
     8    7   15 1   
     9    8    9 1   
    10    8   11 1   
    11    8   16 1   
    12    9   10 2   
    13    9   19 1   
    14   11   12 1   
    15   11   17 1   
    16   11   18 1   
    17   12   13 1   
    18   12   14 1   
    19   19   20 1   
    20   19   28 1   
    21   20   21 1   
    22   20   23 1   
    23   20   29 1   
    24   21   22 2   
    25   21   41 1   
    26   23   24 1   
    27   23   30 1   
    28   23   31 1   
    29   24   25 1   
    30   24   32 1   
    31   24   33 1   
    32   25   26 1   
    33   25   34 1   
    34   25   35 1   
    35   26   27 1   
    36   26   36 1   
    37   26   37 1   
    38   27   38 1   
    39   27   39 1   
    40   27   40 1   
    41   41   42 1   
    42   41   49 1   
    43   42   43 1   
    44   42   45 1   
    45   42   50 1   
    46   43   44 2   
    47   43   53 1   
    48   45   46 1   
    49   45   51 1   
    50   45   52 1   
    51   46   47 1   
    52   46   48 1   
    53   53   54 1   
    54   53   57 1   
    55   54   55 1   
    56   54   58 1   
    57   54   59 1   
    58   55   56 2   
    59   55   60 1   
    60   60   61 1   
    61   60   68 1   
    62   61   62 1   
    63   61   64 1   
    64   61   69 1   
    65   62   63 2   
    66   62   72 1   
    67   64   65 1   
    68   64   70 1   
    69   64   71 1   
    70   65   66 1   
    71   65   67 1   
    72   72   73 1   
    73   72   76 1   
    74   73   74 1   
    75   73   77 1   
    76   73   78 1   
    77   74   75 2   
    78   74   79 1   
    79   79   80 1   
    80   79   86 1   
    81   80   81 1   
    82   80   83 1   
    83   80   87 1   
    84   81   82 2   
    85   81   93 1   
    86   83   84 1   
    87   83   85 1   
    88   83   88 1   
    89   84   90 1   
    90   84   91 1   
    91   84   92 1   
    92   85   89 1   
    93   93   94 1   
    94   93  101 1   
    95   94   95 1   
    96   94   97 1   
    97   94  102 1   
    98   95   96 2   
    99   95  112 1   
   100   97   98 1   
   101   97   99 1   
   102   97  103 1   
   103   98  100 1   
   104   98  104 1   
   105   98  105 1   
   106   99  106 1   
   107   99  107 1   
   108   99  108 1   
   109  100  109 1   
   110  100  110 1   
   111  100  111 1   
   112  112  113 1   
   113  112  119 1   
   114  113  114 1   
   115  113  116 1   
   116  113  120 1   
   117  114  115 2   
   118  114  126 1   
   119  116  117 1   
   120  116  118 1   
   121  116  121 1   
   122  117  123 1   
   123  117  124 1   
   124  117  125 1   
   125  118  122 1   
   126  126  127 1   
   127  126  133 1   
   128  127  128 1   
   129  127  130 1   
   130  127  134 1   
   131  128  129 2   
   132  128  140 1   
   133  130  131 1   
   134  130  132 1   
   135  130  135 1   
   136  131  137 1   
   137  131  138 1   
   138  131  139 1   
   139  132  136 1   
   140  140  141 1   
   141  140  149 1   
   142  141  142 1   
   143  141  144 1   
   144  141  150 1   
   145  142  143 2   
   146  142  162 1   
   147  144  145 1   
   148  144  151 1   
   149  144  152 1   
   150  145  146 1   
   151  145  153 1   
   152  145  154 1   
   153  146  147 1   
   154  146  155 1   
   155  146  156 1   
   156  147  148 1   
   157  147  157 1   
   158  147  158 1   
   159  148  159 1   
   160  148  160 1   
   161  148  161 1   
   162  162  163 1   
   163  162  171 1   
   164  163  164 1   
   165  163  166 1   
   166  163  172 1   
   167  164  165 2   
   168  164  177 1   
   169  166  167 1   
   170  166  173 1   
   171  166  174 1   
   172  167  168 1   
   173  167  175 1   
   174  167  176 1   
   175  168  169 1   
   176  168  170 1   
   177  177  178 1   
   178  177  182 1   
   179  178  179 1   
   180  178  180 1   
   181  178  181 1   
   182  184  185 1   
   183  184  186 1   
   184  187  188 1   
   185  187  189 1   
@<TRIPOS>SUBSTRUCTURE
     1 MOL         1 TEMP              0 ****  ****    0 ROOT
