@<TRIPOS>MOLECULE
MOL
  189   185     1     0     0
SMALL
resp


@<TRIPOS>ATOM
      1 C1         -0.0330    3.0830    5.8080 c3        1 MOL     -0.362268
      2 C2         -0.3310    2.6640    4.3300 c         1 MOL      0.795844
      3 O1          0.5870    2.7020    3.4950 o         1 MOL     -0.632336
      4 H1          0.4300    4.0700    5.8190 hc        1 MOL      0.095097
      5 H2         -0.9650    3.1130    6.3720 hc        1 MOL      0.095097
      6 H3          0.6440    2.3600    6.2610 hc        1 MOL      0.095097
      7 N1         -1.5890    2.1430    4.0240 n         1 MOL     -0.742807
      8 C3         -1.9840    1.9480    2.6100 c3        1 MOL      0.276447
      9 C4         -2.2140    3.2650    1.9450 c         1 MOL      0.267661
     10 O2         -3.0240    4.0260    2.4740 o         1 MOL     -0.540023
     11 C5         -3.1170    0.9780    2.6280 c3        1 MOL      0.004266
     12 C6         -3.8110    0.9490    1.2660 c         1 MOL      0.652983
     13 O3         -3.1190    0.9910    0.2270 o         1 MOL     -0.637854
     14 O4         -5.0410    1.0790    1.2550 o         1 MOL     -0.637854
     15 H4         -2.3180    2.0840    4.7200 hn        1 MOL      0.372883
     16 H5         -1.1980    1.4290    2.0510 h1        1 MOL      0.024556
     17 H6         -3.8860    1.1440    3.3770 hc        1 MOL     -0.021697
     18 H7         -2.6900   -0.0260    2.7420 hc        1 MOL     -0.021697
     19 N2         -1.6510    3.5830    0.7560 n         1 MOL      0.025338
     20 C7         -1.8070    4.8700    0.0540 c3        1 MOL      0.041922
     21 C8         -3.0670    4.9330   -0.8490 c         1 MOL      0.445817
     22 O5         -3.4440    6.0280   -1.1860 o         1 MOL     -0.546855
     23 C9         -0.5300    5.1790   -0.7110 c3        1 MOL     -0.166147
     24 C10         0.5530    5.8960    0.1090 c3        1 MOL     -0.063159
     25 C11         0.9870    5.3030    1.4870 c3        1 MOL      0.075407
     26 C12         0.0820    5.5450    2.6480 c3        1 MOL     -0.070784
     27 N3         -0.0850    6.9660    2.9650 n4        1 MOL     -0.292303
     28 H8         -1.3530    2.7730    0.2410 hn        1 MOL      0.105616
     29 H9         -2.0330    5.6400    0.7870 h1        1 MOL      0.035234
     30 H10        -0.8330    5.8030   -1.5560 hc        1 MOL      0.093865
     31 H11        -0.0570    4.2680   -1.0540 hc        1 MOL      0.093865
     32 H12         0.3640    6.9560    0.2250 hc        1 MOL      0.011696
     33 H13         1.4320    5.7830   -0.5310 hc        1 MOL      0.011696
     34 H14         2.0100    5.6710    1.5820 hc        1 MOL      0.030404
     35 H15         0.9590    4.2130    1.3960 hc        1 MOL      0.030404
     36 H16         0.4830    5.0120    3.5060 hx        1 MOL      0.087888
     37 H17        -0.9150    5.1670    2.4030 hx        1 MOL      0.087888
     38 H18         0.7700    7.4560    2.7470 hn        1 MOL      0.297696
     39 H19        -0.8320    7.4820    2.5240 hn        1 MOL      0.297696
     40 H20        -0.2070    7.0850    3.9620 hn        1 MOL      0.297696
     41 N4         -3.6670    3.8220   -1.2180 n         1 MOL     -0.298456
     42 C13        -4.4860    3.8480   -2.4180 c3        1 MOL     -0.006541
     43 C14        -5.7470    2.9530   -2.3890 c         1 MOL      0.394445
     44 O6         -6.5870    3.0600   -3.3200 o         1 MOL     -0.516839
     45 C15        -3.6000    3.6230   -3.6560 c3        1 MOL     -0.253114
     46 C16        -2.8810    2.3100   -3.7110 c         1 MOL      0.903116
     47 O7         -1.9650    2.2280   -4.6000 o         1 MOL     -0.713335
     48 O8         -3.0750    1.3000   -3.0070 o         1 MOL     -0.713335
     49 H21        -3.3800    2.9040   -0.9050 hn        1 MOL      0.217919
     50 H22        -4.9090    4.8510   -2.5130 h1        1 MOL      0.120093
     51 H23        -2.7930    4.3420   -3.5320 hc        1 MOL      0.065664
     52 H24        -4.2360    3.7340   -4.5310 hc        1 MOL      0.065664
     53 N5         -6.0080    2.2260   -1.3220 n         1 MOL     -0.190853
     54 C17        -7.3760    1.6810   -0.9160 c3        1 MOL      0.003804
     55 C18        -7.7520    0.3640   -1.6150 c         1 MOL      0.464344
     56 O9         -8.8020    0.2360   -2.2200 o         1 MOL     -0.559787
     57 H25        -5.3100    2.2200   -0.5890 hn        1 MOL      0.158344
     58 H26        -8.1980    2.3940   -1.0040 h1        1 MOL      0.053096
     59 H27        -7.3600    1.3180    0.1120 h1        1 MOL      0.053096
     60 N6         -6.9140   -0.6820   -1.5390 n         1 MOL     -0.161570
     61 C19        -7.0880   -2.0410   -2.1460 c3        1 MOL     -0.011165
     62 C20        -7.1590   -3.0930   -0.9770 c         1 MOL      0.362288
     63 O10        -7.3240   -4.2700   -1.3090 o         1 MOL     -0.506744
     64 C21        -5.9340   -2.2970   -3.1590 c3        1 MOL     -0.130041
     65 C22        -4.4910   -2.0880   -2.6050 c         1 MOL      0.699502
     66 O11        -4.2270   -1.9790   -1.3720 o         1 MOL     -0.704408
     67 O12        -3.5730   -1.9510   -3.4070 o         1 MOL     -0.704408
     68 H28        -5.9690   -0.4770   -1.2440 hn        1 MOL      0.060268
     69 H29        -8.0230   -2.1140   -2.6830 h1        1 MOL      0.111513
     70 H30        -6.0280   -1.5390   -3.9330 hc        1 MOL      0.064670
     71 H31        -6.0630   -3.2430   -3.6850 hc        1 MOL      0.064670
     72 N7         -7.1400   -2.7150    0.3110 n         1 MOL     -0.225801
     73 C23        -7.0320   -3.6260    1.4330 c3        1 MOL     -0.303039
     74 C24        -5.6360   -4.1710    1.6730 c         1 MOL      0.591089
     75 O13        -5.5270   -5.0970    2.4970 o         1 MOL     -0.555645
     76 H32        -7.1740   -1.7250    0.4620 hn        1 MOL      0.225395
     77 H33        -7.7540   -4.4190    1.2350 h1        1 MOL      0.154500
     78 H34        -7.3230   -3.0480    2.3190 h1        1 MOL      0.154500
     79 N8         -4.5040   -3.6250    1.0530 n         1 MOL     -0.323371
     80 C25        -3.1320   -4.0980    1.2750 c3        1 MOL     -0.081706
     81 C26        -1.9680   -3.1000    1.3770 c         1 MOL      0.704861
     82 O14        -2.1050   -2.0110    0.8120 o         1 MOL     -0.642785
     83 C27        -2.7750   -5.3650    0.4100 c3        1 MOL      0.264354
     84 C28        -3.6600   -6.5530    0.5830 c3        1 MOL     -0.467237
     85 O15        -2.7900   -4.9760   -0.8920 oh        1 MOL     -0.582652
     86 H35        -4.6600   -2.9710    0.3080 hn        1 MOL      0.231189
     87 H36        -3.0850   -4.4320    2.3120 h1        1 MOL      0.045431
     88 H37        -1.7740   -5.7640    0.5830 h1        1 MOL      0.066915
     89 H38        -3.6690   -5.1960   -1.2100 ho        1 MOL      0.410501
     90 H39        -3.7320   -6.8090    1.6400 hc        1 MOL      0.132438
     91 H40        -4.7150   -6.4260    0.3160 hc        1 MOL      0.132438
     92 H41        -3.2050   -7.4200    0.1050 hc        1 MOL      0.132438
     93 N9         -0.8090   -3.5310    1.9580 n         1 MOL     -0.502444
     94 C29         0.3470   -2.6400    2.1420 c3        1 MOL     -0.026933
     95 C30         1.5760   -3.2720    1.5220 c         1 MOL      0.490649
     96 O16         1.8320   -4.4720    1.7870 o         1 MOL     -0.544453
     97 C31         0.6850   -2.4520    3.6470 c3        1 MOL      0.111295
     98 C32        -0.4700   -2.1630    4.6130 c3        1 MOL      0.329037
     99 C33         1.7720   -1.3760    3.8230 c3        1 MOL     -0.473881
    100 C34        -0.1320   -2.3800    6.0710 c3        1 MOL     -0.307453
    101 H42        -0.6720   -4.5080    2.1790 hn        1 MOL      0.265787
    102 H43         0.1380   -1.6850    1.6660 h1        1 MOL      0.137964
    103 H44         1.0450   -3.4270    3.9810 hc        1 MOL      0.015887
    104 H45        -1.3220   -2.8220    4.4220 hc        1 MOL     -0.064176
    105 H46        -0.8190   -1.1390    4.5690 hc        1 MOL     -0.064176
    106 H47         2.0480   -1.2050    4.8670 hc        1 MOL      0.109257
    107 H48         2.6580   -1.6570    3.2640 hc        1 MOL      0.109257
    108 H49         1.4150   -0.3770    3.5530 hc        1 MOL      0.109257
    109 H50        -1.0620   -2.2030    6.6050 hc        1 MOL      0.061549
    110 H51         0.2170   -3.4050    6.2270 hc        1 MOL      0.061549
    111 H52         0.5960   -1.6240    6.3460 hc        1 MOL      0.061549
    112 N10         2.3320   -2.5120    0.7390 n         1 MOL     -0.339141
    113 C35         3.7080   -2.9260    0.2300 c3        1 MOL      0.103348
    114 C36         4.8460   -2.2050    0.9180 c         1 MOL      0.334016
    115 O17         4.7050   -1.1710    1.5440 o         1 MOL     -0.283870
    116 C37         3.7910   -2.8440   -1.2980 c3        1 MOL      0.207092
    117 C38         2.7320   -3.6400   -2.0200 c3        1 MOL     -0.508763
    118 O18         3.7500   -1.4990   -1.6870 oh        1 MOL     -0.577523
    119 H53         2.0750   -1.5710    0.5150 hn        1 MOL      0.294796
    120 H54         3.7110   -3.9980    0.4120 h1        1 MOL      0.039657
    121 H55         4.7450   -3.2370   -1.6470 h1        1 MOL      0.044403
    122 H56         2.8340   -1.2280   -1.5840 ho        1 MOL      0.395832
    123 H57         2.8520   -4.7120   -1.8380 hc        1 MOL      0.149603
    124 H58         1.7310   -3.3170   -1.7420 hc        1 MOL      0.149603
    125 H59         2.7470   -3.5080   -3.1010 hc        1 MOL      0.149603
    126 N11         5.9770   -2.8510    0.6310 n         1 MOL     -0.385243
    127 C39         7.3130   -2.2260    0.9460 c3        1 MOL     -0.101476
    128 C40         7.4840   -0.7540    0.4010 c         1 MOL      0.346733
    129 O19         8.3030   -0.0080    0.9140 o         1 MOL     -0.476020
    130 C41         8.4720   -3.1050    0.3400 c3        1 MOL      0.311032
    131 C42         8.4500   -4.5690    0.8800 c3        1 MOL     -0.464749
    132 O20         8.3050   -3.2050   -1.0420 oh        1 MOL     -0.626702
    133 H60         5.8500   -3.7610    0.2110 hn        1 MOL      0.295782
    134 H61         7.4730   -2.2040    2.0240 h1        1 MOL      0.145227
    135 H62         9.4070   -2.6670    0.6840 h1        1 MOL      0.032716
    136 H63         9.1130   -3.5910   -1.3950 ho        1 MOL      0.414904
    137 H64         7.5530   -5.0570    0.4930 hc        1 MOL      0.133939
    138 H65         9.3350   -5.0670    0.4900 hc        1 MOL      0.133939
    139 H66         8.4810   -4.5670    1.9680 hc        1 MOL      0.133939
    140 N12         6.7740   -0.3010   -0.7180 n         1 MOL     -0.137954
    141 C43         6.8580    1.1040   -1.2550 c3        1 MOL     -0.044585
    142 C44         5.8970    1.9580   -0.4840 c         1 MOL      0.473835
    143 O21         6.0570    3.1860   -0.3390 o         1 MOL     -0.516342
    144 C45         6.8370    1.1450   -2.7700 c3        1 MOL     -0.134153
    145 C46         8.1900    0.6520   -3.3040 c3        1 MOL      0.003218
    146 C47         8.3030    0.5400   -4.7890 c3        1 MOL     -0.112796
    147 C48         9.7990    0.0820   -4.9870 c3        1 MOL      0.116336
    148 N13         9.9330   -0.2950   -6.3940 n4        1 MOL     -0.237075
    149 H67         6.1560   -0.9150   -1.2310 hn        1 MOL      0.214992
    150 H68         7.8340    1.4420   -0.8890 h1        1 MOL      0.088537
    151 H69         6.6600    2.1740   -3.0690 hc        1 MOL      0.066224
    152 H70         6.0330    0.5410   -3.1880 hc        1 MOL      0.066224
    153 H71         8.4640   -0.2970   -2.8400 hc        1 MOL      0.033482
    154 H72         8.9570    1.3950   -3.0790 hc        1 MOL      0.033482
    155 H73         8.2070    1.4980   -5.2950 hc        1 MOL      0.065794
    156 H74         7.7150   -0.2610   -5.2270 hc        1 MOL      0.065794
    157 H75        10.0350   -0.7060   -4.2820 hx        1 MOL      0.055657
    158 H76        10.5190    0.8760   -4.7980 hx        1 MOL      0.055657
    159 H77        10.8420   -0.7090   -6.5120 hn        1 MOL      0.247904
    160 H78         9.2840   -1.0120   -6.6880 hn        1 MOL      0.247904
    161 H79         9.8120    0.4210   -7.1070 hn        1 MOL      0.247904
    162 N14         4.7250    1.4170    0.0100 n         1 MOL     -0.188563
    163 C49         3.7930    2.2690    0.7050 c3        1 MOL     -0.141870
    164 C50         4.2320    2.5630    2.1130 c         1 MOL      0.460332
    165 O22         4.2450    3.7500    2.5240 o         1 MOL     -0.541163
    166 C51         2.4100    1.5090    0.7110 c3        1 MOL      0.167464
    167 C52         1.8880    1.4350   -0.7380 c3        1 MOL     -0.117722
    168 C53         0.5450    0.8080   -0.7960 c         1 MOL      0.667752
    169 O23        -0.4720    1.5110   -0.9930 o         1 MOL     -0.748403
    170 O24         0.4470   -0.4230   -0.7070 o         1 MOL     -0.748403
    171 H80         4.5790    0.4330   -0.1290 hn        1 MOL      0.147080
    172 H81         3.6160    3.2250    0.2040 h1        1 MOL      0.124489
    173 H82         1.6620    2.1730    1.1460 hc        1 MOL     -0.031774
    174 H83         2.4520    0.5420    1.2150 hc        1 MOL     -0.031774
    175 H84         2.6290    0.9540   -1.3760 hc        1 MOL      0.002704
    176 H85         1.8010    2.4560   -1.1260 hc        1 MOL      0.002704
    177 N15         4.7980    1.4800    2.7450 n         1 MOL     -0.071489
    178 C54         5.5650    1.6020    3.9920 c3        1 MOL     -0.322136
    179 H86         6.1170    2.5410    3.9870 h1        1 MOL      0.121220
    180 H87         4.8810    1.5880    4.8410 h1        1 MOL      0.121220
    181 H88         6.2640    0.7700    4.0730 h1        1 MOL      0.121220
    182 H89         4.6840    0.6260    2.2160 hn        1 MOL      0.053921
    183 Ca1        -2.1030   -0.5630   -1.4640 Ca        1 MOL      1.691372
    184 O25        -0.6190   -0.0550   -3.6840 oh        1 MOL     -0.764805
    185 H90        -0.7460    0.8680   -3.9020 ho        1 MOL      0.372302
    186 H91         0.3210   -0.1670   -3.6300 ho        1 MOL      0.372302
    187 O26        -0.9620   -2.9650   -1.8440 oh        1 MOL     -0.764805
    188 H92        -0.9320   -3.1900   -2.7750 ho        1 MOL      0.372302
    189 H93        -1.5980   -3.5720   -1.4740 ho        1 MOL      0.372302
@<TRIPOS>BOND
     1    1    2 1   
     2    1    4 1   
     3    1    5 1   
     4    1    6 1   
     5    2    3 2   
     6    2    7 1   
     7    7    8 1   
     8    7   15 1   
     9    8    9 1   
    10    8   11 1   
    11    8   16 1   
    12    9   10 2   
    13    9   19 1   
    14   11   12 1   
    15   11   17 1   
    16   11   18 1   
    17   12   13 1   
    18   12   14 1   
    19   19   20 1   
    20   19   28 1   
    21   20   21 1   
    22   20   23 1   
    23   20   29 1   
    24   21   22 2   
    25   21   41 1   
    26   23   24 1   
    27   23   30 1   
    28   23   31 1   
    29   24   25 1   
    30   24   32 1   
    31   24   33 1   
    32   25   26 1   
    33   25   34 1   
    34   25   35 1   
    35   26   27 1   
    36   26   36 1   
    37   26   37 1   
    38   27   38 1   
    39   27   39 1   
    40   27   40 1   
    41   41   42 1   
    42   41   49 1   
    43   42   43 1   
    44   42   45 1   
    45   42   50 1   
    46   43   44 2   
    47   43   53 1   
    48   45   46 1   
    49   45   51 1   
    50   45   52 1   
    51   46   47 1   
    52   46   48 1   
    53   53   54 1   
    54   53   57 1   
    55   54   55 1   
    56   54   58 1   
    57   54   59 1   
    58   55   56 2   
    59   55   60 1   
    60   60   61 1   
    61   60   68 1   
    62   61   62 1   
    63   61   64 1   
    64   61   69 1   
    65   62   63 2   
    66   62   72 1   
    67   64   65 1   
    68   64   70 1   
    69   64   71 1   
    70   65   66 1   
    71   65   67 1   
    72   72   73 1   
    73   72   76 1   
    74   73   74 1   
    75   73   77 1   
    76   73   78 1   
    77   74   75 2   
    78   74   79 1   
    79   79   80 1   
    80   79   86 1   
    81   80   81 1   
    82   80   83 1   
    83   80   87 1   
    84   81   82 2   
    85   81   93 1   
    86   83   84 1   
    87   83   85 1   
    88   83   88 1   
    89   84   90 1   
    90   84   91 1   
    91   84   92 1   
    92   85   89 1   
    93   93   94 1   
    94   93  101 1   
    95   94   95 1   
    96   94   97 1   
    97   94  102 1   
    98   95   96 2   
    99   95  112 1   
   100   97   98 1   
   101   97   99 1   
   102   97  103 1   
   103   98  100 1   
   104   98  104 1   
   105   98  105 1   
   106   99  106 1   
   107   99  107 1   
   108   99  108 1   
   109  100  109 1   
   110  100  110 1   
   111  100  111 1   
   112  112  113 1   
   113  112  119 1   
   114  113  114 1   
   115  113  116 1   
   116  113  120 1   
   117  114  115 2   
   118  114  126 1   
   119  116  117 1   
   120  116  118 1   
   121  116  121 1   
   122  117  123 1   
   123  117  124 1   
   124  117  125 1   
   125  118  122 1   
   126  126  127 1   
   127  126  133 1   
   128  127  128 1   
   129  127  130 1   
   130  127  134 1   
   131  128  129 2   
   132  128  140 1   
   133  130  131 1   
   134  130  132 1   
   135  130  135 1   
   136  131  137 1   
   137  131  138 1   
   138  131  139 1   
   139  132  136 1   
   140  140  141 1   
   141  140  149 1   
   142  141  142 1   
   143  141  144 1   
   144  141  150 1   
   145  142  143 2   
   146  142  162 1   
   147  144  145 1   
   148  144  151 1   
   149  144  152 1   
   150  145  146 1   
   151  145  153 1   
   152  145  154 1   
   153  146  147 1   
   154  146  155 1   
   155  146  156 1   
   156  147  148 1   
   157  147  157 1   
   158  147  158 1   
   159  148  159 1   
   160  148  160 1   
   161  148  161 1   
   162  162  163 1   
   163  162  171 1   
   164  163  164 1   
   165  163  166 1   
   166  163  172 1   
   167  164  165 2   
   168  164  177 1   
   169  166  167 1   
   170  166  173 1   
   171  166  174 1   
   172  167  168 1   
   173  167  175 1   
   174  167  176 1   
   175  168  169 1   
   176  168  170 1   
   177  177  178 1   
   178  177  182 1   
   179  178  179 1   
   180  178  180 1   
   181  178  181 1   
   182  184  185 1   
   183  184  186 1   
   184  187  188 1   
   185  187  189 1   
@<TRIPOS>SUBSTRUCTURE
     1 MOL         1 TEMP              0 ****  ****    0 ROOT
