@<TRIPOS>MOLECULE
MOL
  172   171     1     0     0
SMALL
resp


@<TRIPOS>ATOM
      1 C1          0.5100    5.4500    5.2960 c3        1 MOL     -0.384338
      2 C2          0.1830    4.9810    3.8380 c         1 MOL      0.620451
      3 O1          0.9250    5.3000    2.9010 o         1 MOL     -0.554262
      4 H1          1.0710    6.3840    5.2590 hc        1 MOL      0.092535
      5 H2         -0.4190    5.6060    5.8440 hc        1 MOL      0.092535
      6 H3          1.1060    4.6880    5.7990 hc        1 MOL      0.092535
      7 N1         -0.9480    4.4430    3.6800 n         1 MOL     -0.417669
      8 C3         -1.5480    4.0160    2.4550 c3        1 MOL      0.022897
      9 C4         -1.7290    5.0690    1.3870 c         1 MOL      0.657566
     10 O2         -1.8230    6.2910    1.7020 o         1 MOL     -0.559404
     11 C5         -2.8690    3.4020    2.7980 c3        1 MOL     -0.486515
     12 C6         -3.6600    3.0420    1.5090 c         1 MOL      0.664911
     13 O3         -3.2820    2.0710    0.7550 o         1 MOL     -0.610015
     14 O4         -4.5560    3.8180    1.1690 o         1 MOL     -0.610015
     15 H4         -1.3830    4.0810    4.5130 hn        1 MOL      0.283565
     16 H5         -0.9740    3.2080    1.9920 h1        1 MOL      0.119753
     17 H6         -3.4400    4.1880    3.2980 hc        1 MOL      0.123866
     18 H7         -2.7330    2.5080    3.3950 hc        1 MOL      0.123866
     19 N2         -1.7840    4.7160    0.0810 n         1 MOL     -0.612038
     20 C7         -2.1780    5.5620   -1.0210 c3        1 MOL      0.389445
     21 C8         -3.1520    4.8660   -2.0380 c         1 MOL      0.271400
     22 O5         -3.2150    5.3120   -3.2220 o         1 MOL     -0.541955
     23 C9         -0.9040    5.8610   -1.8100 c3        1 MOL     -0.156849
     24 H8         -1.7120    3.7250   -0.1260 hn        1 MOL      0.342339
     25 H9         -2.6010    6.5240   -0.7320 h1        1 MOL     -0.001368
     26 H10        -0.3260    4.9610   -1.9910 hc        1 MOL      0.029089
     27 H11        -1.0420    6.4250   -2.7410 hc        1 MOL      0.029089
     28 H12        -0.2390    6.4910   -1.2170 hc        1 MOL      0.029089
     29 N3         -3.9040    3.7800   -1.7270 n         1 MOL      0.082644
     30 C10        -4.9640    3.2540   -2.6650 c3        1 MOL     -0.002700
     31 C11        -6.0870    2.4670   -1.9100 c         1 MOL      0.346491
     32 O6         -7.0360    2.1120   -2.6510 o         1 MOL     -0.553456
     33 C12        -4.3990    2.2820   -3.7030 c3        1 MOL     -0.021850
     34 C13        -3.4270    1.2200   -3.1750 c         1 MOL      0.544597
     35 O7         -2.3280    0.9230   -3.7520 o         1 MOL     -0.635442
     36 O8         -3.6940    0.6790   -2.0750 o         1 MOL     -0.635442
     37 H13        -3.8970    3.3620   -0.8070 hn        1 MOL     -0.150657
     38 H14        -5.3590    4.1390   -3.1640 h1        1 MOL      0.063479
     39 H15        -3.7650    2.8610   -4.3810 hc        1 MOL      0.012526
     40 H16        -5.1900    1.7940   -4.2720 hc        1 MOL      0.012526
     41 N4         -6.0380    2.0410   -0.6920 n         1 MOL     -0.059682
     42 C14        -7.1190    1.3670   -0.0120 c3        1 MOL     -0.256542
     43 C15        -7.2570   -0.0770   -0.4360 c         1 MOL      0.564421
     44 O9         -8.2330   -0.7520   -0.1480 o         1 MOL     -0.623107
     45 H17        -5.1420    2.1210   -0.2430 hn        1 MOL      0.188772
     46 H18        -8.0490    1.9000   -0.2090 h1        1 MOL      0.114732
     47 H19        -6.9280    1.4350    1.0650 h1        1 MOL      0.114732
     48 N5         -6.2090   -0.6810   -0.9720 n         1 MOL     -0.196818
     49 C16        -6.3150   -1.9780   -1.6830 c3        1 MOL      0.035272
     50 C17        -6.4270   -3.2430   -0.8310 c         1 MOL      0.403030
     51 O10        -6.5860   -4.3370   -1.3500 o         1 MOL     -0.529650
     52 C18        -5.2910   -2.0750   -2.7760 c3        1 MOL     -0.145241
     53 C19        -3.8730   -2.3600   -2.2230 c         1 MOL      0.684147
     54 N6         -2.8510   -2.4960   -3.0260 n         1 MOL     -0.645248
     55 O11        -3.6070   -2.4050   -0.9870 o         1 MOL     -0.570059
     56 H20        -5.3850   -0.1060   -1.0650 hn        1 MOL      0.078004
     57 H21        -7.2840   -1.9020   -2.1690 h1        1 MOL      0.098430
     58 H22        -5.2740   -1.2440   -3.4740 hc        1 MOL      0.054866
     59 H23        -5.5690   -2.9420   -3.3860 hc        1 MOL      0.054866
     60 H24        -2.9660   -2.3980   -4.0280 hn        1 MOL      0.338943
     61 H25        -1.9680   -2.4700   -2.5410 hn        1 MOL      0.338943
     62 N7         -6.3600   -3.1010    0.4710 n         1 MOL     -0.200077
     63 C20        -6.4370   -4.2520    1.4270 c3        1 MOL     -0.108533
     64 C21        -5.0690   -4.7400    1.8180 c         1 MOL      0.446575
     65 O12        -5.0010   -5.5790    2.7060 o         1 MOL     -0.581974
     66 H26        -6.4330   -2.1430    0.7900 hn        1 MOL      0.196775
     67 H27        -7.1330   -4.9740    0.9860 h1        1 MOL      0.098833
     68 H28        -6.9820   -3.9710    2.3290 h1        1 MOL      0.098833
     69 N8         -3.9810   -4.2280    1.2600 n         1 MOL     -0.010882
     70 C22        -2.5390   -4.5900    1.5430 c3        1 MOL     -0.327589
     71 C23        -1.5840   -3.4010    1.8030 c         1 MOL      0.617729
     72 O13        -1.7380   -2.3780    1.2070 o         1 MOL     -0.404040
     73 C24        -1.9580   -5.3410    0.3680 c3        1 MOL      0.575383
     74 C25        -2.4250   -6.7760    0.2980 c3        1 MOL     -0.335198
     75 O14        -2.3520   -4.7760   -0.8570 oh        1 MOL     -0.575507
     76 H29        -4.1980   -3.3580    0.8060 hn        1 MOL      0.011728
     77 H30        -2.5890   -5.1590    2.4630 h1        1 MOL      0.122905
     78 H31        -0.8700   -5.3750    0.4190 h1        1 MOL     -0.023845
     79 H32        -2.5370   -3.8760   -0.6060 ho        1 MOL      0.231084
     80 H33        -2.1370   -7.2420    1.2480 hc        1 MOL      0.068690
     81 H34        -3.5060   -6.8640    0.2350 hc        1 MOL      0.068690
     82 H35        -1.9140   -7.3200   -0.4950 hc        1 MOL      0.068690
     83 N9         -0.4370   -3.6700    2.5390 n         1 MOL     -0.692371
     84 C26         0.7050   -2.7640    2.3930 c3        1 MOL      0.056263
     85 C27         1.3870   -3.0140    1.0070 c         1 MOL      0.523395
     86 O15         1.7660   -4.1480    0.7820 o         1 MOL     -0.579674
     87 C28         1.6870   -2.6870    3.5550 c3        1 MOL      0.306897
     88 C29         0.8760   -2.5820    4.9090 c3        1 MOL     -0.163789
     89 C30         2.6550   -1.5040    3.4640 c3        1 MOL     -0.292529
     90 C31         1.6690   -2.3990    6.2480 c3        1 MOL     -0.129961
     91 H36        -0.3150   -4.5380    3.0500 hn        1 MOL      0.347137
     92 H37         0.3940   -1.7260    2.3140 h1        1 MOL      0.081230
     93 H38         2.2870   -3.5950    3.5440 hc        1 MOL     -0.056604
     94 H39         0.2170   -3.4450    4.9490 hc        1 MOL      0.048998
     95 H40         0.1560   -1.7730    4.8110 hc        1 MOL      0.048998
     96 H41         3.0790   -1.3190    2.4710 hc        1 MOL      0.065349
     97 H42         2.1510   -0.5670    3.6890 hc        1 MOL      0.065349
     98 H43         3.4680   -1.7440    4.1420 hc        1 MOL      0.065349
     99 H44         2.4200   -3.1690    6.3800 hc        1 MOL      0.035184
    100 H45         2.1720   -1.4340    6.3090 hc        1 MOL      0.035184
    101 H46         1.0050   -2.4460    7.1080 hc        1 MOL      0.035184
    102 N10         1.6030   -1.9780    0.1920 n         1 MOL     -0.064298
    103 C32         2.4290   -2.1120   -1.0550 c3        1 MOL     -0.036668
    104 C33         3.9290   -1.5920   -0.7980 c         1 MOL      0.501257
    105 O16         4.1660   -0.9190    0.1770 o         1 MOL     -0.353232
    106 C34         1.7120   -1.3420   -2.1190 c3        1 MOL     -0.267826
    107 C35         0.2410   -1.8700   -2.2880 c         1 MOL      0.755900
    108 O17        -0.6780   -1.2930   -1.6930 o         1 MOL     -0.675595
    109 O18         0.0590   -2.7070   -3.2740 o         1 MOL     -0.675595
    110 H47         1.1980   -1.0900    0.4410 hn        1 MOL     -0.219571
    111 H48         2.4750   -3.1650   -1.3550 h1        1 MOL      0.078870
    112 H49         2.1610   -1.3990   -3.1180 hc        1 MOL      0.099657
    113 H50         1.6030   -0.3310   -1.7550 hc        1 MOL      0.099657
    114 N11         4.9770   -2.0180   -1.5400 n         1 MOL     -0.649099
    115 C36         6.3770   -1.6530   -1.2260 c3        1 MOL      0.381430
    116 C37         6.6250   -0.1410   -1.1020 c         1 MOL      0.250573
    117 O19         7.4980    0.2660   -0.3030 o         1 MOL     -0.463658
    118 C38         7.2880   -2.2970   -2.3100 c3        1 MOL     -0.224773
    119 C39         8.7840   -2.1530   -2.0160 ca        1 MOL      0.099650
    120 C40         9.2860   -2.8830   -0.9570 ca        1 MOL     -0.169323
    121 C41         9.6090   -1.2880   -2.7540 ca        1 MOL     -0.169323
    122 C42        10.6010   -2.6700   -0.5910 ca        1 MOL     -0.129439
    123 C43        10.9610   -1.0680   -2.3240 ca        1 MOL     -0.129439
    124 C44        11.4120   -1.7330   -1.2160 ca        1 MOL     -0.057927
    125 H51         4.7570   -2.6220   -2.3240 hn        1 MOL      0.342208
    126 H52         6.7120   -2.0550   -0.2700 h1        1 MOL      0.035389
    127 H53         7.1300   -1.7910   -3.2700 hc        1 MOL      0.062983
    128 H54         7.0020   -3.3330   -2.5060 hc        1 MOL      0.062983
    129 H55         8.6310   -3.4950   -0.3530 ha        1 MOL      0.125111
    130 H56         9.1310   -0.7520   -3.5620 ha        1 MOL      0.125111
    131 H57        10.9560   -3.2810    0.2190 ha        1 MOL      0.111320
    132 H58        11.5380   -0.2780   -2.7950 ha        1 MOL      0.111320
    133 H59        12.4170   -1.5710   -0.8530 ha        1 MOL      0.083624
    134 N12         5.9450    0.7070   -1.8770 n         1 MOL     -0.043370
    135 C45         6.2070    2.1380   -1.5700 c3        1 MOL      0.034359
    136 C46         5.5200    2.5620   -0.2860 c         1 MOL      0.236255
    137 O20         5.9580    3.5120    0.3260 o         1 MOL     -0.508203
    138 C47         5.6730    2.8270   -2.8690 c3        1 MOL     -0.039839
    139 C48         5.5540    1.7490   -3.9820 c3        1 MOL     -0.153469
    140 C49         5.1090    0.6240   -3.0960 c3        1 MOL      0.047567
    141 H60         7.2750    2.3640   -1.5600 h1        1 MOL      0.077606
    142 H61         4.6410    3.1080   -2.6210 hc        1 MOL      0.050512
    143 H62         6.2450    3.6980   -3.1710 hc        1 MOL      0.050512
    144 H63         4.8010    2.0920   -4.6880 hc        1 MOL      0.057024
    145 H64         6.4640    1.4560   -4.5040 hc        1 MOL      0.057024
    146 H65         4.0650    0.6950   -2.7860 h1        1 MOL      0.046047
    147 H66         5.2010   -0.3050   -3.6570 h1        1 MOL      0.046047
    148 N13         4.5240    1.8640    0.1640 n         1 MOL      0.168595
    149 C50         3.7990    2.1810    1.4190 c3        1 MOL     -0.134292
    150 C51         4.6160    1.7700    2.6100 c         1 MOL      0.423246
    151 O21         4.5520    2.4860    3.6060 o         1 MOL     -0.527941
    152 C52         2.4500    1.6350    1.2520 c3        1 MOL     -0.031308
    153 C53         1.6280    2.0510   -0.0340 c3        1 MOL      0.127932
    154 C54         0.2620    1.4280    0.1090 c         1 MOL      0.428764
    155 O22        -0.7140    1.9390   -0.5010 o         1 MOL     -0.637182
    156 O23         0.0750    0.3720    0.7390 o         1 MOL     -0.637182
    157 H67         4.2570    0.9950   -0.2870 hn        1 MOL     -0.226663
    158 H68         3.6370    3.2530    1.5760 h1        1 MOL      0.118691
    159 H69         1.8150    1.9770    2.0670 hc        1 MOL      0.070409
    160 H70         2.5050    0.5500    1.2010 hc        1 MOL      0.070409
    161 H71         2.1530    1.7540   -0.9510 hc        1 MOL      0.016552
    162 H72         1.7410    3.1310   -0.0690 hc        1 MOL      0.016552
    163 N14         5.3740    0.6240    2.5030 n         1 MOL     -0.139829
    164 C55         6.3730    0.0950    3.4830 c3        1 MOL     -0.063654
    165 H73         6.6080    0.8680    4.2150 h1        1 MOL      0.042996
    166 H74         5.9570   -0.7740    3.9930 h1        1 MOL      0.042996
    167 H75         7.2820   -0.1940    2.9550 h1        1 MOL      0.042996
    168 H76         5.2370    0.0440    1.6870 hn        1 MOL      0.174510
    169 Ca1        -2.2710   -0.1330   -0.2210 Ca        1 MOL      1.721879
    170 O24        -3.8790   -0.4560    2.1930 oh        1 MOL     -0.939408
    171 H77        -4.8380   -0.4060    2.2140 ho        1 MOL      0.438848
    172 H78        -3.6190   -0.3240    3.1000 ho        1 MOL      0.438848
@<TRIPOS>BOND
     1    1    2 1   
     2    1    4 1   
     3    1    5 1   
     4    1    6 1   
     5    2    3 2   
     6    2    7 1   
     7    7    8 1   
     8    7   15 1   
     9    8    9 1   
    10    8   11 1   
    11    8   16 1   
    12    9   10 2   
    13    9   19 1   
    14   11   12 1   
    15   11   17 1   
    16   11   18 1   
    17   12   13 1   
    18   12   14 1   
    19   19   20 1   
    20   19   24 1   
    21   20   21 1   
    22   20   23 1   
    23   20   25 1   
    24   21   22 2   
    25   21   29 1   
    26   23   26 1   
    27   23   27 1   
    28   23   28 1   
    29   29   30 1   
    30   29   37 1   
    31   30   31 1   
    32   30   33 1   
    33   30   38 1   
    34   31   32 2   
    35   31   41 1   
    36   33   34 1   
    37   33   39 1   
    38   33   40 1   
    39   34   35 1   
    40   34   36 1   
    41   41   42 1   
    42   41   45 1   
    43   42   43 1   
    44   42   46 1   
    45   42   47 1   
    46   43   44 2   
    47   43   48 1   
    48   48   49 1   
    49   48   56 1   
    50   49   50 1   
    51   49   52 1   
    52   49   57 1   
    53   50   51 2   
    54   50   62 1   
    55   52   53 1   
    56   52   58 1   
    57   52   59 1   
    58   53   54 1   
    59   53   55 2   
    60   54   60 1   
    61   54   61 1   
    62   62   63 1   
    63   62   66 1   
    64   63   64 1   
    65   63   67 1   
    66   63   68 1   
    67   64   65 2   
    68   64   69 1   
    69   69   70 1   
    70   69   76 1   
    71   70   71 1   
    72   70   73 1   
    73   70   77 1   
    74   71   72 2   
    75   71   83 1   
    76   73   74 1   
    77   73   75 1   
    78   73   78 1   
    79   74   80 1   
    80   74   81 1   
    81   74   82 1   
    82   75   79 1   
    83   83   84 1   
    84   83   91 1   
    85   84   85 1   
    86   84   87 1   
    87   84   92 1   
    88   85   86 2   
    89   85  102 1   
    90   87   88 1   
    91   87   89 1   
    92   87   93 1   
    93   88   90 1   
    94   88   94 1   
    95   88   95 1   
    96   89   96 1   
    97   89   97 1   
    98   89   98 1   
    99   90   99 1   
   100   90  100 1   
   101   90  101 1   
   102  102  103 1   
   103  102  110 1   
   104  103  104 1   
   105  103  106 1   
   106  103  111 1   
   107  104  105 2   
   108  104  114 1   
   109  106  107 1   
   110  106  112 1   
   111  106  113 1   
   112  107  108 1   
   113  107  109 1   
   114  114  115 1   
   115  114  125 1   
   116  115  116 1   
   117  115  118 1   
   118  115  126 1   
   119  116  117 2   
   120  116  134 1   
   121  118  119 1   
   122  118  127 1   
   123  118  128 1   
   124  119  120 ar  
   125  119  121 ar  
   126  120  122 ar  
   127  120  129 1   
   128  121  123 ar  
   129  121  130 1   
   130  122  124 ar  
   131  122  131 1   
   132  123  124 ar  
   133  123  132 1   
   134  124  133 1   
   135  134  135 1   
   136  134  140 1   
   137  135  136 1   
   138  135  138 1   
   139  135  141 1   
   140  136  137 2   
   141  136  148 1   
   142  138  139 1   
   143  138  142 1   
   144  138  143 1   
   145  139  140 1   
   146  139  144 1   
   147  139  145 1   
   148  140  146 1   
   149  140  147 1   
   150  148  149 1   
   151  148  157 1   
   152  149  150 1   
   153  149  152 1   
   154  149  158 1   
   155  150  151 2   
   156  150  163 1   
   157  152  153 1   
   158  152  159 1   
   159  152  160 1   
   160  153  154 1   
   161  153  161 1   
   162  153  162 1   
   163  154  155 1   
   164  154  156 1   
   165  163  164 1   
   166  163  168 1   
   167  164  165 1   
   168  164  166 1   
   169  164  167 1   
   170  170  171 1   
   171  170  172 1   
@<TRIPOS>SUBSTRUCTURE
     1 MOL         1 TEMP              0 ****  ****    0 ROOT
