@<TRIPOS>MOLECULE
MOL
  189   185     1     0     0
SMALL
resp


@<TRIPOS>ATOM
      1 C1          0.1370    0.9960    6.0090 c3        1 MOL     -0.276598
      2 C2         -0.3120    1.3240    4.5770 c         1 MOL      0.687145
      3 O1          0.4870    1.9840    3.8760 o         1 MOL     -0.597998
      4 H1         -0.5110    1.5110    6.7180 hc        1 MOL      0.073071
      5 H2          0.0720   -0.0790    6.1730 hc        1 MOL      0.073071
      6 H3          1.1660    1.3250    6.1510 hc        1 MOL      0.073071
      7 N1         -1.5010    0.8330    4.1280 n         1 MOL     -0.603602
      8 C3         -2.1710    1.0950    2.9250 c3        1 MOL      0.303049
      9 C4         -2.5290    2.5420    2.6500 c         1 MOL      0.441413
     10 O2         -3.5570    3.0910    3.1970 o         1 MOL     -0.562903
     11 C5         -3.3200    0.0880    2.8190 c3        1 MOL     -0.301262
     12 C6         -4.0570   -0.0520    1.5160 c         1 MOL      0.777252
     13 O3         -5.1800   -0.5930    1.4420 o         1 MOL     -0.626015
     14 O4         -3.6100    0.6390    0.5760 o         1 MOL     -0.626015
     15 H4         -2.0280    0.2710    4.7860 hn        1 MOL      0.313320
     16 H5         -1.4760    0.8540    2.1220 h1        1 MOL      0.004780
     17 H6         -4.0260    0.3080    3.6190 hc        1 MOL      0.057907
     18 H7         -2.8300   -0.8720    3.0220 hc        1 MOL      0.057907
     19 N2         -1.6880    3.2860    1.9220 n         1 MOL     -0.333095
     20 C7         -1.6930    4.7730    1.6660 c3        1 MOL      0.010057
     21 C8         -2.7180    5.1120    0.5250 c         1 MOL      0.508705
     22 O5         -3.1080    6.2870    0.3900 o         1 MOL     -0.597278
     23 C9         -0.2490    5.1650    1.2340 c3        1 MOL     -0.347026
     24 C10        -0.1360    6.7130    1.3090 c3        1 MOL      0.408432
     25 C11         1.1330    7.0850    0.5790 c3        1 MOL     -0.028579
     26 C12         1.4290    8.5610    0.3410 c3        1 MOL     -0.228898
     27 N3          0.4150    9.1040   -0.7030 n4        1 MOL     -0.273235
     28 H8         -1.0080    2.7370    1.4250 hn        1 MOL      0.311770
     29 H9         -2.1060    5.3140    2.5150 h1        1 MOL      0.100855
     30 H10        -0.0690    4.7460    0.2500 hc        1 MOL      0.098472
     31 H11         0.5180    4.7180    1.8690 hc        1 MOL      0.098472
     32 H12        -0.1960    7.0400    2.3430 hc        1 MOL     -0.070694
     33 H13        -0.9950    7.1770    0.8400 hc        1 MOL     -0.070694
     34 H14         1.0720    6.6390   -0.4050 hc        1 MOL      0.024814
     35 H15         1.9260    6.5870    1.1440 hc        1 MOL      0.024814
     36 H16         2.4640    8.5670   -0.0110 hx        1 MOL      0.143097
     37 H17         1.3610    9.0110    1.3310 hx        1 MOL      0.143097
     38 H18         0.7310    9.9460   -1.1580 hn        1 MOL      0.317171
     39 H19         0.1000    8.4780   -1.4240 hn        1 MOL      0.317171
     40 H20        -0.3700    9.5150   -0.2240 hn        1 MOL      0.317171
     41 N4         -3.1860    4.1210   -0.2080 n         1 MOL     -0.280685
     42 C13        -4.2710    4.2590   -1.2170 c3        1 MOL      0.041106
     43 C14        -5.5360    3.5390   -1.0130 c         1 MOL      0.421724
     44 O6         -6.4860    3.8040   -1.7840 o         1 MOL     -0.515293
     45 C15        -3.6710    4.1880   -2.6670 c3        1 MOL     -0.320496
     46 C16        -2.9990    2.8670   -3.0270 c         1 MOL      0.779497
     47 O7         -2.6840    2.5940   -4.2170 o         1 MOL     -0.684291
     48 O8         -2.5970    2.1310   -2.0810 o         1 MOL     -0.684291
     49 H21        -2.7030    3.2300   -0.2010 hn        1 MOL      0.191095
     50 H22        -4.5970    5.3010   -1.1920 h1        1 MOL      0.090128
     51 H23        -2.9420    4.9910   -2.8320 hc        1 MOL      0.078899
     52 H24        -4.5110    4.3190   -3.3540 hc        1 MOL      0.078899
     53 N5         -5.6360    2.6810   -0.0140 n         1 MOL     -0.189568
     54 C17        -6.8120    1.9790    0.3660 c3        1 MOL     -0.150559
     55 C18        -7.2530    0.8380   -0.5650 c         1 MOL      0.511535
     56 O9         -8.4130    0.8530   -0.9510 o         1 MOL     -0.559746
     57 H25        -4.7840    2.5540    0.5040 hn        1 MOL      0.173263
     58 H26        -7.6490    2.6740    0.4140 h1        1 MOL      0.099304
     59 H27        -6.6490    1.5380    1.3460 h1        1 MOL      0.099304
     60 N6         -6.3640   -0.0770   -1.0530 n         1 MOL     -0.052264
     61 C19        -6.7550   -1.1980   -1.9830 c3        1 MOL     -0.149430
     62 C20        -6.9820   -2.5310   -1.2380 c         1 MOL      0.472626
     63 O10        -7.2650   -3.5580   -1.8670 o         1 MOL     -0.521805
     64 C21        -5.7190   -1.3470   -3.0610 c3        1 MOL     -0.042360
     65 C22        -4.2630   -1.3480   -2.5710 c         1 MOL      0.685204
     66 O11        -3.3350   -0.9470   -3.3310 o         1 MOL     -0.706670
     67 O12        -3.9860   -1.6600   -1.3840 o         1 MOL     -0.706670
     68 H28        -5.4420   -0.0500   -0.6450 hn        1 MOL     -0.030899
     69 H29        -7.7050   -1.0230   -2.4890 h1        1 MOL      0.131353
     70 H30        -5.8010   -0.5760   -3.8270 hc        1 MOL      0.041789
     71 H31        -5.8430   -2.3160   -3.5490 hc        1 MOL      0.041789
     72 N7         -6.7480   -2.4850    0.0690 n         1 MOL     -0.296757
     73 C23        -6.6340   -3.5100    1.0410 c3        1 MOL     -0.035356
     74 C24        -5.4140   -4.3780    0.9570 c         1 MOL      0.472149
     75 O13        -5.4090   -5.5120    1.3940 o         1 MOL     -0.572522
     76 H32        -6.3360   -1.6020    0.3460 hn        1 MOL      0.221886
     77 H33        -7.4860   -4.1780    1.0500 h1        1 MOL      0.071348
     78 H34        -6.5820   -3.0350    2.0170 h1        1 MOL      0.071348
     79 N8         -4.2980   -3.8590    0.4760 n         1 MOL     -0.057377
     80 C25        -3.0150   -4.5750    0.3460 c3        1 MOL     -0.225597
     81 C26        -1.8550   -3.6660    0.5430 c         1 MOL      0.628111
     82 O14        -1.9750   -2.4070    0.5360 o         1 MOL     -0.629806
     83 C27        -2.8530   -5.2140   -1.0840 c3        1 MOL      0.428919
     84 C28        -3.6380   -6.4580   -1.3740 c3        1 MOL     -0.476958
     85 O15        -2.9950   -4.3340   -2.1280 oh        1 MOL     -0.551474
     86 H35        -4.3520   -2.8940    0.1740 hn        1 MOL      0.063287
     87 H36        -2.9800   -5.3110    1.1570 h1        1 MOL      0.115914
     88 H37        -1.8210   -5.4930   -1.3030 h1        1 MOL      0.002761
     89 H38        -3.3800   -3.5840   -1.6740 ho        1 MOL      0.402838
     90 H39        -3.1840   -6.9940   -2.2050 hc        1 MOL      0.122073
     91 H40        -3.5620   -7.0480   -0.4500 hc        1 MOL      0.122073
     92 H41        -4.6830   -6.2480   -1.5820 hc        1 MOL      0.122073
     93 N9         -0.6820   -4.2530    0.7470 n         1 MOL     -0.507484
     94 C29         0.6040   -3.6290    1.0490 c3        1 MOL      0.118359
     95 C30         1.5920   -3.8900   -0.1300 c         1 MOL      0.428843
     96 O16         1.8470   -5.0110   -0.5450 o         1 MOL     -0.552013
     97 C31         1.0690   -4.1240    2.5170 c3        1 MOL     -0.030065
     98 C32         0.1520   -3.4410    3.6140 c3        1 MOL      0.024633
     99 C33         2.6270   -4.0430    2.7900 c3        1 MOL     -0.063087
    100 C34         0.4010   -3.8030    5.0970 c3        1 MOL     -0.181793
    101 H42        -0.7500   -5.2520    0.8160 hn        1 MOL      0.262493
    102 H43         0.5820   -2.5390    1.1150 h1        1 MOL      0.083962
    103 H44         0.8270   -5.1910    2.5520 hc        1 MOL      0.032310
    104 H45        -0.8870   -3.6860    3.4190 hc        1 MOL      0.023290
    105 H46         0.2480   -2.3670    3.4490 hc        1 MOL      0.023290
    106 H47         3.2790   -4.5050    2.0520 hc        1 MOL      0.017803
    107 H48         2.8940   -2.9910    2.8510 hc        1 MOL      0.017803
    108 H49         2.9360   -4.5340    3.7140 hc        1 MOL      0.017803
    109 H50         0.7190   -4.8230    5.2960 hc        1 MOL      0.046185
    110 H51         1.1540   -3.1840    5.5660 hc        1 MOL      0.046185
    111 H52        -0.5060   -3.5030    5.6150 hc        1 MOL      0.046185
    112 N10         2.0770   -2.8440   -0.7360 n         1 MOL     -0.203705
    113 C35         3.2310   -2.8820   -1.7070 c3        1 MOL      0.064472
    114 C36         4.6000   -2.9900   -1.0870 c         1 MOL      0.372139
    115 O17         4.7550   -3.1090    0.1460 o         1 MOL     -0.427324
    116 C37         3.1880   -1.6140   -2.6260 c3        1 MOL      0.269863
    117 C38         1.9720   -1.5790   -3.5670 c3        1 MOL     -0.576381
    118 O18         3.1800   -0.5050   -1.8370 oh        1 MOL     -0.496883
    119 H53         1.7550   -2.0010   -0.2800 hn        1 MOL      0.181847
    120 H54         3.1840   -3.8050   -2.2850 h1        1 MOL      0.078285
    121 H55         4.0880   -1.6810   -3.2410 h1        1 MOL      0.044002
    122 H56         2.2380   -0.4810   -1.6660 ho        1 MOL      0.358141
    123 H57         1.0960   -1.0830   -3.1580 hc        1 MOL      0.158497
    124 H58         2.1550   -0.8940   -4.3970 hc        1 MOL      0.158497
    125 H59         1.7360   -2.6080   -3.8340 hc        1 MOL      0.158497
    126 N11         5.6530   -2.9480   -1.9290 n         1 MOL     -0.236060
    127 C39         7.1250   -2.8710   -1.5660 c3        1 MOL     -0.042725
    128 C40         7.4060   -1.5350   -0.7640 c         1 MOL      0.407853
    129 O19         8.1120   -1.5270    0.1820 o         1 MOL     -0.460601
    130 C41         8.1190   -2.9230   -2.7430 c3        1 MOL      0.402993
    131 C42         9.4250   -3.4810   -2.2830 c3        1 MOL     -0.250933
    132 O20         7.6190   -3.8360   -3.7880 oh        1 MOL     -0.614552
    133 H60         5.4360   -2.9250   -2.9230 hn        1 MOL      0.166965
    134 H61         7.2950   -3.6530   -0.8330 h1        1 MOL      0.130870
    135 H62         8.3900   -1.9540   -3.1580 h1        1 MOL     -0.043501
    136 H63         8.2280   -3.7350   -4.5270 ho        1 MOL      0.385131
    137 H64         9.8430   -2.9470   -1.4390 hc        1 MOL      0.066119
    138 H65         9.0340   -4.4170   -1.8700 hc        1 MOL      0.066119
    139 H66        10.1220   -3.6080   -3.1200 hc        1 MOL      0.066119
    140 N12         6.6540   -0.4630   -1.0680 n         1 MOL     -0.319739
    141 C43         6.8850    0.8770   -0.4720 c3        1 MOL     -0.067354
    142 C44         6.1110    0.9710    0.8670 c         1 MOL      0.263092
    143 O21         6.6560    1.4690    1.8820 o         1 MOL     -0.495578
    144 C45         6.4710    1.9590   -1.4850 c3        1 MOL      0.050164
    145 C46         6.8920    3.3360   -0.9320 c3        1 MOL     -0.133843
    146 C47         6.7190    4.3870   -2.1050 c3        1 MOL     -0.116192
    147 C48         6.8050    5.7740   -1.4320 c3        1 MOL      0.207579
    148 N13         7.1320    6.8390   -2.4190 n4        1 MOL     -0.366874
    149 H67         5.9150   -0.6400   -1.7350 hn        1 MOL      0.154710
    150 H68         7.9240    0.9550   -0.1680 h1        1 MOL      0.147645
    151 H69         5.3910    1.9190   -1.6200 hc        1 MOL      0.039767
    152 H70         6.8770    1.7410   -2.4770 hc        1 MOL      0.039767
    153 H71         7.9700    3.2750   -0.7470 hc        1 MOL      0.076737
    154 H72         6.2810    3.6490   -0.0910 hc        1 MOL      0.076737
    155 H73         5.7670    4.1360   -2.5730 hc        1 MOL      0.052741
    156 H74         7.5340    4.3440   -2.8260 hc        1 MOL      0.052741
    157 H75         7.5840    5.8220   -0.6670 hx        1 MOL      0.038644
    158 H76         5.8980    6.0640   -0.9110 hx        1 MOL      0.038644
    159 H77         6.6750    6.6870   -3.3080 hn        1 MOL      0.284039
    160 H78         6.8080    7.7200   -2.0470 hn        1 MOL      0.284039
    161 H79         8.1160    6.8900   -2.6140 hn        1 MOL      0.284039
    162 N14         4.9330    0.3420    0.9560 n         1 MOL      0.088212
    163 C49         4.0670    0.3270    2.1240 c3        1 MOL     -0.264670
    164 C50         4.7170   -0.5980    3.1510 c         1 MOL      0.479308
    165 O22         4.7110   -0.3290    4.3140 o         1 MOL     -0.554038
    166 C51         2.6050   -0.1420    1.8090 c3        1 MOL      0.298035
    167 C52         2.0280    0.9900    0.9270 c3        1 MOL     -0.232049
    168 C53         0.6980    0.6930    0.3470 c         1 MOL      0.822824
    169 O23        -0.2790    1.4770    0.3360 o         1 MOL     -0.783244
    170 O24         0.5590   -0.4240   -0.1500 o         1 MOL     -0.783244
    171 H80         4.5780   -0.1000    0.1130 hn        1 MOL     -0.028641
    172 H81         4.0180    1.3300    2.5390 h1        1 MOL      0.132631
    173 H82         1.9740   -0.2100    2.6970 hc        1 MOL     -0.032869
    174 H83         2.7300   -1.1090    1.3060 hc        1 MOL     -0.032869
    175 H84         2.6410    1.1410    0.0370 hc        1 MOL      0.040249
    176 H85         2.0040    1.9130    1.4990 hc        1 MOL      0.040249
    177 N15         5.2790   -1.7010    2.6410 n         1 MOL      0.060266
    178 C54         6.1150   -2.6440    3.3610 c3        1 MOL     -0.368009
    179 H86         5.8440   -2.6360    4.4180 h1        1 MOL      0.120351
    180 H87         5.9650   -3.6450    2.9570 h1        1 MOL      0.120351
    181 H88         7.1610   -2.3600    3.2530 h1        1 MOL      0.120351
    182 H89         5.1480   -1.7980    1.6350 hn        1 MOL      0.083956
    183 Ca1        -1.7740   -0.1550   -1.1460 Ca        1 MOL      1.757354
    184 O25        -1.0760   -2.5420   -2.1420 oh        1 MOL     -0.925371
    185 H90        -1.5620   -3.3620   -2.1310 ho        1 MOL      0.413169
    186 H91        -0.6650   -2.5150   -3.0060 ho        1 MOL      0.413169
    187 O26        -0.7250    0.9800   -3.4430 oh        1 MOL     -0.925371
    188 H92        -0.5470    0.6620   -4.3310 ho        1 MOL      0.413169
    189 H93        -1.4830    1.5580   -3.5440 ho        1 MOL      0.413169
@<TRIPOS>BOND
     1    1    2 1   
     2    1    4 1   
     3    1    5 1   
     4    1    6 1   
     5    2    3 2   
     6    2    7 1   
     7    7    8 1   
     8    7   15 1   
     9    8    9 1   
    10    8   11 1   
    11    8   16 1   
    12    9   10 2   
    13    9   19 1   
    14   11   12 1   
    15   11   17 1   
    16   11   18 1   
    17   12   13 1   
    18   12   14 1   
    19   19   20 1   
    20   19   28 1   
    21   20   21 1   
    22   20   23 1   
    23   20   29 1   
    24   21   22 2   
    25   21   41 1   
    26   23   24 1   
    27   23   30 1   
    28   23   31 1   
    29   24   25 1   
    30   24   32 1   
    31   24   33 1   
    32   25   26 1   
    33   25   34 1   
    34   25   35 1   
    35   26   27 1   
    36   26   36 1   
    37   26   37 1   
    38   27   38 1   
    39   27   39 1   
    40   27   40 1   
    41   41   42 1   
    42   41   49 1   
    43   42   43 1   
    44   42   45 1   
    45   42   50 1   
    46   43   44 2   
    47   43   53 1   
    48   45   46 1   
    49   45   51 1   
    50   45   52 1   
    51   46   47 1   
    52   46   48 1   
    53   53   54 1   
    54   53   57 1   
    55   54   55 1   
    56   54   58 1   
    57   54   59 1   
    58   55   56 2   
    59   55   60 1   
    60   60   61 1   
    61   60   68 1   
    62   61   62 1   
    63   61   64 1   
    64   61   69 1   
    65   62   63 2   
    66   62   72 1   
    67   64   65 1   
    68   64   70 1   
    69   64   71 1   
    70   65   66 1   
    71   65   67 1   
    72   72   73 1   
    73   72   76 1   
    74   73   74 1   
    75   73   77 1   
    76   73   78 1   
    77   74   75 2   
    78   74   79 1   
    79   79   80 1   
    80   79   86 1   
    81   80   81 1   
    82   80   83 1   
    83   80   87 1   
    84   81   82 2   
    85   81   93 1   
    86   83   84 1   
    87   83   85 1   
    88   83   88 1   
    89   84   90 1   
    90   84   91 1   
    91   84   92 1   
    92   85   89 1   
    93   93   94 1   
    94   93  101 1   
    95   94   95 1   
    96   94   97 1   
    97   94  102 1   
    98   95   96 2   
    99   95  112 1   
   100   97   98 1   
   101   97   99 1   
   102   97  103 1   
   103   98  100 1   
   104   98  104 1   
   105   98  105 1   
   106   99  106 1   
   107   99  107 1   
   108   99  108 1   
   109  100  109 1   
   110  100  110 1   
   111  100  111 1   
   112  112  113 1   
   113  112  119 1   
   114  113  114 1   
   115  113  116 1   
   116  113  120 1   
   117  114  115 2   
   118  114  126 1   
   119  116  117 1   
   120  116  118 1   
   121  116  121 1   
   122  117  123 1   
   123  117  124 1   
   124  117  125 1   
   125  118  122 1   
   126  126  127 1   
   127  126  133 1   
   128  127  128 1   
   129  127  130 1   
   130  127  134 1   
   131  128  129 2   
   132  128  140 1   
   133  130  131 1   
   134  130  132 1   
   135  130  135 1   
   136  131  137 1   
   137  131  138 1   
   138  131  139 1   
   139  132  136 1   
   140  140  141 1   
   141  140  149 1   
   142  141  142 1   
   143  141  144 1   
   144  141  150 1   
   145  142  143 2   
   146  142  162 1   
   147  144  145 1   
   148  144  151 1   
   149  144  152 1   
   150  145  146 1   
   151  145  153 1   
   152  145  154 1   
   153  146  147 1   
   154  146  155 1   
   155  146  156 1   
   156  147  148 1   
   157  147  157 1   
   158  147  158 1   
   159  148  159 1   
   160  148  160 1   
   161  148  161 1   
   162  162  163 1   
   163  162  171 1   
   164  163  164 1   
   165  163  166 1   
   166  163  172 1   
   167  164  165 2   
   168  164  177 1   
   169  166  167 1   
   170  166  173 1   
   171  166  174 1   
   172  167  168 1   
   173  167  175 1   
   174  167  176 1   
   175  168  169 1   
   176  168  170 1   
   177  177  178 1   
   178  177  182 1   
   179  178  179 1   
   180  178  180 1   
   181  178  181 1   
   182  184  185 1   
   183  184  186 1   
   184  187  188 1   
   185  187  189 1   
@<TRIPOS>SUBSTRUCTURE
     1 MOL         1 TEMP              0 ****  ****    0 ROOT
