@<TRIPOS>MOLECULE
MOL
  175   173     1     0     0
SMALL
resp


@<TRIPOS>ATOM
      1 C1          0.3870    4.0400    5.7210 c3        1 MOL     -0.428157
      2 C2         -0.2350    4.0080    4.3000 c         1 MOL      0.711661
      3 O1          0.4660    4.2410    3.3010 o         1 MOL     -0.553792
      4 H1          1.3560    3.5420    5.7050 hc        1 MOL      0.109439
      5 H2          0.5160    5.0740    6.0390 hc        1 MOL      0.109439
      6 H3         -0.2740    3.5240    6.4190 hc        1 MOL      0.109439
      7 N1         -1.5130    3.7050    4.0880 n         1 MOL     -0.610118
      8 C3         -2.1790    3.4620    2.8090 c3        1 MOL      0.166923
      9 C4         -2.4240    4.7210    1.9190 c         1 MOL      0.551155
     10 O2         -2.7020    5.8600    2.3540 o         1 MOL     -0.567763
     11 C5         -3.5470    2.7710    3.0280 c3        1 MOL     -0.431302
     12 C6         -4.0630    2.0710    1.7400 c         1 MOL      0.893357
     13 O3         -5.1660    1.5130    1.8350 o         1 MOL     -0.717969
     14 O4         -3.4120    2.0500    0.7030 o         1 MOL     -0.717969
     15 H4         -2.1010    3.3980    4.8530 hn        1 MOL      0.319574
     16 H5         -1.5630    2.8580    2.1390 h1        1 MOL      0.104350
     17 H6         -4.1520    3.6000    3.3890 hc        1 MOL      0.079179
     18 H7         -3.4040    2.0670    3.8390 hc        1 MOL      0.079179
     19 N2         -2.2360    4.5670    0.6060 n         1 MOL     -0.525725
     20 C7         -2.6550    5.6250   -0.3470 c3        1 MOL      0.279788
     21 C8         -3.2820    5.1270   -1.6810 c         1 MOL      0.487392
     22 O5         -3.3740    5.8520   -2.6970 o         1 MOL     -0.561036
     23 C9         -1.4570    6.5030   -0.7260 c3        1 MOL     -0.327075
     24 H8         -1.9280    3.6660    0.2650 hn        1 MOL      0.303301
     25 H9         -3.3780    6.3090    0.1120 h1        1 MOL      0.032502
     26 H10        -0.7250    6.0680   -1.4040 hc        1 MOL      0.079481
     27 H11        -1.8440    7.4560   -1.0880 hc        1 MOL      0.079481
     28 H12        -1.0390    6.8060    0.2370 hc        1 MOL      0.079481
     29 N3         -3.7970    3.8930   -1.6860 n         1 MOL     -0.446313
     30 C10        -4.5330    3.2270   -2.8010 c3        1 MOL      0.137124
     31 C11        -5.8220    2.5190   -2.3870 c         1 MOL      0.451079
     32 O6         -6.6600    2.2090   -3.2660 o         1 MOL     -0.574908
     33 C12        -3.6810    2.3050   -3.7230 c3        1 MOL     -0.136757
     34 C13        -3.0190    1.2330   -2.9310 c         1 MOL      0.808613
     35 O7         -1.8240    1.0060   -3.0420 o         1 MOL     -0.736900
     36 O8         -3.7090    0.6480   -2.0980 o         1 MOL     -0.736900
     37 H13        -3.4960    3.2850   -0.9400 hn        1 MOL      0.225632
     38 H14        -4.9130    4.0570   -3.4040 h1        1 MOL      0.054542
     39 H15        -2.8710    2.8840   -4.1790 hc        1 MOL      0.031480
     40 H16        -4.1910    1.8880   -4.5960 hc        1 MOL      0.031480
     41 N4         -5.9780    2.1190   -1.1230 n         1 MOL     -0.342046
     42 C14        -7.2520    1.4480   -0.7200 c3        1 MOL     -0.027146
     43 C15        -7.4170    0.0030   -1.1580 c         1 MOL      0.484812
     44 O9         -8.5180   -0.4470   -1.0060 o         1 MOL     -0.602807
     45 H17        -5.2690    2.2820   -0.4240 hn        1 MOL      0.177975
     46 H18        -8.0890    2.0730   -1.0250 h1        1 MOL      0.081475
     47 H19        -7.4560    1.3100    0.3350 h1        1 MOL      0.081475
     48 N5         -6.4170   -0.5800   -1.7940 n         1 MOL     -0.268142
     49 C16        -6.3630   -1.9800   -2.2650 c3        1 MOL      0.260178
     50 C17        -6.5540   -2.9700   -1.1030 c         1 MOL      0.305473
     51 O10        -6.8890   -4.1510   -1.3870 o         1 MOL     -0.545257
     52 C18        -5.0750   -2.1940   -3.1650 c3        1 MOL     -0.357476
     53 C19        -3.8190   -2.3010   -2.3740 c         1 MOL      0.821011
     54 N6         -2.7530   -2.3440   -3.1080 n         1 MOL     -0.674791
     55 O11        -3.6690   -2.2870   -1.1750 o         1 MOL     -0.732465
     56 H20        -5.7050    0.1010   -1.9960 hn        1 MOL      0.180211
     57 H21        -7.2100   -2.1900   -2.9290 h1        1 MOL      0.024311
     58 H22        -4.9880   -1.3060   -3.7920 hc        1 MOL      0.090498
     59 H23        -5.2320   -3.1610   -3.6550 hc        1 MOL      0.090498
     60 H24        -2.8790   -2.4480   -4.1110 hn        1 MOL      0.308096
     61 H25        -1.8230   -2.3690   -2.7090 hn        1 MOL      0.308096
     62 N7         -6.1380   -2.7210    0.1360 n         1 MOL     -0.062495
     63 C20        -6.2370   -3.6550    1.3540 c3        1 MOL     -0.256089
     64 C21        -4.9490   -4.4430    1.8200 c         1 MOL      0.633340
     65 O12        -5.0490   -5.3180    2.6400 o         1 MOL     -0.575985
     66 H26        -5.6990   -1.8360    0.3320 hn        1 MOL      0.154469
     67 H27        -7.0250   -4.3690    1.1170 h1        1 MOL      0.102721
     68 H28        -6.5350   -2.9550    2.1350 h1        1 MOL      0.102721
     69 N8         -3.7760   -4.0040    1.2940 n         1 MOL     -0.395370
     70 C22        -2.4290   -4.5970    1.5770 c3        1 MOL     -0.249804
     71 C23        -1.2960   -3.5240    1.6070 c         1 MOL      0.600364
     72 O13        -1.4590   -2.5480    0.8720 o         1 MOL     -0.362522
     73 C24        -2.0860   -5.7030    0.5730 c3        1 MOL      0.530019
     74 C25        -2.9520   -6.9110    0.6520 c3        1 MOL     -0.494685
     75 O14        -2.2340   -5.1570   -0.7050 oh        1 MOL     -0.586477
     76 H29        -3.9220   -3.2860    0.6030 hn        1 MOL      0.359450
     77 H30        -2.5860   -5.1270    2.5210 h1        1 MOL      0.106709
     78 H31        -1.0410   -6.0070    0.6960 h1        1 MOL     -0.041466
     79 H32        -1.8940   -4.2600   -0.6800 ho        1 MOL      0.308354
     80 H33        -2.6740   -7.5860   -0.1570 hc        1 MOL      0.125638
     81 H34        -2.7420   -7.3620    1.6170 hc        1 MOL      0.125638
     82 H35        -4.0240   -6.7530    0.5780 hc        1 MOL      0.125638
     83 N9         -0.1920   -3.6860    2.3700 n         1 MOL     -0.649822
     84 C26         0.9290   -2.7740    2.2020 c3        1 MOL     -0.105415
     85 C27         1.6570   -3.0860    0.8820 c         1 MOL      0.683356
     86 O15         2.1190   -4.2360    0.6860 o         1 MOL     -0.606821
     87 C28         1.8240   -2.7170    3.4150 c3        1 MOL      0.347525
     88 C29         1.1100   -2.3170    4.6860 c3        1 MOL      0.113710
     89 C30         3.0810   -1.8140    3.1390 c3        1 MOL     -0.249477
     90 C31         1.9230   -2.1800    5.9600 c3        1 MOL     -0.279807
     91 H36        -0.1090   -4.5170    2.9340 hn        1 MOL      0.333292
     92 H37         0.4840   -1.7800    2.0600 h1        1 MOL      0.005280
     93 H38         2.3040   -3.6880    3.5630 hc        1 MOL     -0.068657
     94 H39         0.3470   -3.0690    4.8800 hc        1 MOL     -0.025426
     95 H40         0.7210   -1.3030    4.5580 hc        1 MOL     -0.025426
     96 H41         3.8080   -2.0240    3.9240 hc        1 MOL      0.039913
     97 H42         3.5280   -1.9890    2.1630 hc        1 MOL      0.039913
     98 H43         2.7070   -0.8120    3.3660 hc        1 MOL      0.039913
     99 H44         1.1800   -2.0320    6.7430 hc        1 MOL      0.062379
    100 H45         2.4580   -3.1220    6.0910 hc        1 MOL      0.062379
    101 H46         2.5800   -1.3140    5.8530 hc        1 MOL      0.062379
    102 N10         1.8580   -2.0600    0.0220 n         1 MOL     -0.372324
    103 C32         2.6270   -1.9410   -1.2330 c3        1 MOL      0.090296
    104 C33         4.0710   -1.4390   -0.9610 c         1 MOL      0.408364
    105 O16         4.2460   -0.6000   -0.1070 o         1 MOL     -0.146091
    106 C34         1.8340   -1.0260   -2.1420 c3        1 MOL     -0.311684
    107 C35         0.4890   -1.6160   -2.5560 c         1 MOL      0.762078
    108 O17         0.3100   -1.9480   -3.7370 o         1 MOL     -0.674647
    109 O18        -0.4380   -1.5010   -1.7770 o         1 MOL     -0.674647
    110 H47         1.3870   -1.2090    0.2790 hn        1 MOL      0.103143
    111 H48         2.7000   -2.8910   -1.7550 h1        1 MOL      0.052795
    112 H49         2.4350   -1.0070   -3.0530 hc        1 MOL      0.082589
    113 H50         1.5920   -0.0450   -1.7310 hc        1 MOL      0.082589
    114 N11         5.0980   -1.9080   -1.6720 n         1 MOL     -0.612091
    115 C36         6.4400   -1.4610   -1.3620 c3        1 MOL      0.116906
    116 C37         6.6460    0.0310   -1.1740 c         1 MOL      0.403203
    117 O19         7.2840    0.4120   -0.2200 o         1 MOL     -0.485780
    118 C38         7.4390   -2.0380   -2.4010 c3        1 MOL     -0.094564
    119 C39         8.8360   -1.8520   -1.9230 ca        1 MOL     -0.042715
    120 C40         9.6780   -1.1800   -2.7260 ca        1 MOL     -0.066905
    121 C41         9.1890   -2.2080   -0.6140 ca        1 MOL     -0.066905
    122 C42        11.0720   -1.1740   -2.4760 ca        1 MOL     -0.110543
    123 C43        10.5920   -2.1550   -0.3450 ca        1 MOL     -0.110543
    124 C44        11.5230   -1.7430   -1.2810 ca        1 MOL     -0.142151
    125 H51         5.0370   -2.5130   -2.4850 hn        1 MOL      0.358922
    126 H52         6.7810   -1.9100   -0.4280 h1        1 MOL      0.128021
    127 H53         7.3290   -1.4870   -3.3360 hc        1 MOL      0.047170
    128 H54         7.0990   -3.0490   -2.6360 hc        1 MOL      0.047170
    129 H55         9.3420   -0.7300   -3.6460 ha        1 MOL      0.093250
    130 H56         8.5410   -2.7850    0.0190 ha        1 MOL      0.093250
    131 H57        11.7340   -0.8200   -3.2600 ha        1 MOL      0.100304
    132 H58        10.9730   -2.4180    0.6270 ha        1 MOL      0.100304
    133 H59        12.5670   -1.7650   -1.0070 ha        1 MOL      0.113127
    134 N12         6.1440    0.9790   -2.0110 n         1 MOL     -0.056935
    135 C45         6.3020    2.4140   -1.7740 c3        1 MOL      0.038643
    136 C46         5.6590    2.8730   -0.4550 c         1 MOL      0.358183
    137 O20         6.2720    3.7550    0.2500 o         1 MOL     -0.516287
    138 C47         5.8200    3.1050   -3.1000 c3        1 MOL     -0.168846
    139 C48         4.8440    2.1120   -3.6110 c3        1 MOL     -0.009335
    140 C49         5.4400    0.7550   -3.2490 c3        1 MOL     -0.074412
    141 H60         7.3610    2.6550   -1.6940 h1        1 MOL      0.044538
    142 H61         5.4230    4.1070   -2.9260 hc        1 MOL      0.077278
    143 H62         6.6810    3.1410   -3.7590 hc        1 MOL      0.077278
    144 H63         3.9030    2.2010   -3.0810 hc        1 MOL      0.037446
    145 H64         4.7750    2.1730   -4.6910 hc        1 MOL      0.037446
    146 H65         4.6150    0.0880   -3.0160 h1        1 MOL      0.031228
    147 H66         6.1420    0.4440   -4.0130 h1        1 MOL      0.031228
    148 N13         4.5530    2.2310   -0.0110 n         1 MOL     -0.182166
    149 C50         4.0080    2.3550    1.3440 c3        1 MOL     -0.166397
    150 C51         4.8920    1.6810    2.4150 c         1 MOL      0.427680
    151 O21         4.9910    2.1630    3.5470 o         1 MOL     -0.570036
    152 C52         2.5380    1.7590    1.3560 c3        1 MOL     -0.037033
    153 C53         1.5820    2.4750    0.3790 c3        1 MOL     -0.193905
    154 C54         0.2750    1.6460    0.3030 c         1 MOL      0.521459
    155 O22        -0.7110    2.1370   -0.2000 o         1 MOL     -0.595201
    156 O23         0.2030    0.4560    0.6630 o         1 MOL     -0.595201
    157 H67         4.2750    1.3820   -0.4850 hn        1 MOL      0.179088
    158 H68         3.9060    3.4020    1.6240 h1        1 MOL      0.140433
    159 H69         2.1660    1.8990    2.3710 hc        1 MOL      0.063755
    160 H70         2.6740    0.7140    1.1000 hc        1 MOL      0.063755
    161 H71         1.9510    2.5140   -0.6510 hc        1 MOL      0.086859
    162 H72         1.4310    3.4780    0.7760 hc        1 MOL      0.086859
    163 N14         5.6580    0.6260    2.1630 n         1 MOL      0.088886
    164 C55         6.5410   -0.0110    3.1070 c3        1 MOL     -0.197070
    165 H73         7.1570   -0.7470    2.5890 h1        1 MOL      0.066859
    166 H74         7.1830    0.7390    3.5680 h1        1 MOL      0.066859
    167 H75         5.9520   -0.5100    3.8770 h1        1 MOL      0.066859
    168 H76         5.6270    0.1770    1.2600 hn        1 MOL     -0.055440
    169 Ca1        -2.1040   -0.1200   -0.4490 Ca        1 MOL      1.695095
    170 O24        -1.7120   -0.1880    2.7300 oh        1 MOL     -0.861362
    171 H77        -1.8510   -0.3820    3.6650 ho        1 MOL      0.411415
    172 H78        -0.8650    0.2610    2.7010 ho        1 MOL      0.411415
    173 O25        -3.9190   -0.9610    1.3870 oh        1 MOL     -0.861362
    174 H79        -3.2210   -0.8570    2.0310 ho        1 MOL      0.411415
    175 H80        -4.6190   -0.3800    1.7020 ho        1 MOL      0.411415
@<TRIPOS>BOND
     1    1    2 1   
     2    1    4 1   
     3    1    5 1   
     4    1    6 1   
     5    2    3 2   
     6    2    7 1   
     7    7    8 1   
     8    7   15 1   
     9    8    9 1   
    10    8   11 1   
    11    8   16 1   
    12    9   10 2   
    13    9   19 1   
    14   11   12 1   
    15   11   17 1   
    16   11   18 1   
    17   12   13 1   
    18   12   14 1   
    19   19   20 1   
    20   19   24 1   
    21   20   21 1   
    22   20   23 1   
    23   20   25 1   
    24   21   22 2   
    25   21   29 1   
    26   23   26 1   
    27   23   27 1   
    28   23   28 1   
    29   29   30 1   
    30   29   37 1   
    31   30   31 1   
    32   30   33 1   
    33   30   38 1   
    34   31   32 2   
    35   31   41 1   
    36   33   34 1   
    37   33   39 1   
    38   33   40 1   
    39   34   35 1   
    40   34   36 1   
    41   41   42 1   
    42   41   45 1   
    43   42   43 1   
    44   42   46 1   
    45   42   47 1   
    46   43   44 2   
    47   43   48 1   
    48   48   49 1   
    49   48   56 1   
    50   49   50 1   
    51   49   52 1   
    52   49   57 1   
    53   50   51 2   
    54   50   62 1   
    55   52   53 1   
    56   52   58 1   
    57   52   59 1   
    58   53   54 1   
    59   53   55 2   
    60   54   60 1   
    61   54   61 1   
    62   62   63 1   
    63   62   66 1   
    64   63   64 1   
    65   63   67 1   
    66   63   68 1   
    67   64   65 2   
    68   64   69 1   
    69   69   70 1   
    70   69   76 1   
    71   70   71 1   
    72   70   73 1   
    73   70   77 1   
    74   71   72 2   
    75   71   83 1   
    76   73   74 1   
    77   73   75 1   
    78   73   78 1   
    79   74   80 1   
    80   74   81 1   
    81   74   82 1   
    82   75   79 1   
    83   83   84 1   
    84   83   91 1   
    85   84   85 1   
    86   84   87 1   
    87   84   92 1   
    88   85   86 2   
    89   85  102 1   
    90   87   88 1   
    91   87   89 1   
    92   87   93 1   
    93   88   90 1   
    94   88   94 1   
    95   88   95 1   
    96   89   96 1   
    97   89   97 1   
    98   89   98 1   
    99   90   99 1   
   100   90  100 1   
   101   90  101 1   
   102  102  103 1   
   103  102  110 1   
   104  103  104 1   
   105  103  106 1   
   106  103  111 1   
   107  104  105 2   
   108  104  114 1   
   109  106  107 1   
   110  106  112 1   
   111  106  113 1   
   112  107  108 1   
   113  107  109 1   
   114  114  115 1   
   115  114  125 1   
   116  115  116 1   
   117  115  118 1   
   118  115  126 1   
   119  116  117 2   
   120  116  134 1   
   121  118  119 1   
   122  118  127 1   
   123  118  128 1   
   124  119  120 ar  
   125  119  121 ar  
   126  120  122 ar  
   127  120  129 1   
   128  121  123 ar  
   129  121  130 1   
   130  122  124 ar  
   131  122  131 1   
   132  123  124 ar  
   133  123  132 1   
   134  124  133 1   
   135  134  135 1   
   136  134  140 1   
   137  135  136 1   
   138  135  138 1   
   139  135  141 1   
   140  136  137 2   
   141  136  148 1   
   142  138  139 1   
   143  138  142 1   
   144  138  143 1   
   145  139  140 1   
   146  139  144 1   
   147  139  145 1   
   148  140  146 1   
   149  140  147 1   
   150  148  149 1   
   151  148  157 1   
   152  149  150 1   
   153  149  152 1   
   154  149  158 1   
   155  150  151 2   
   156  150  163 1   
   157  152  153 1   
   158  152  159 1   
   159  152  160 1   
   160  153  154 1   
   161  153  161 1   
   162  153  162 1   
   163  154  155 1   
   164  154  156 1   
   165  163  164 1   
   166  163  168 1   
   167  164  165 1   
   168  164  166 1   
   169  164  167 1   
   170  170  171 1   
   171  170  172 1   
   172  173  174 1   
   173  173  175 1   
@<TRIPOS>SUBSTRUCTURE
     1 MOL         1 TEMP              0 ****  ****    0 ROOT
