@<TRIPOS>MOLECULE
MOL
  182   178     1     0     0
SMALL
resp


@<TRIPOS>ATOM
      1 C1          1.6750    1.8890    6.4680 c3        1 MOL     -0.374751
      2 C2          1.2710    1.9140    5.0070 c         1 MOL      0.796871
      3 O1          2.1510    1.9670    4.1330 o         1 MOL     -0.637911
      4 H1          1.8610    0.8600    6.7760 hc        1 MOL      0.092505
      5 H2          2.5820    2.4780    6.6050 hc        1 MOL      0.092505
      6 H3          0.8740    2.3100    7.0750 hc        1 MOL      0.092505
      7 N1          0.0330    1.9990    4.6870 n         1 MOL     -0.638102
      8 C3         -0.5240    2.0810    3.3010 c3        1 MOL      0.018380
      9 C4         -0.6600    3.5730    2.7980 c         1 MOL      0.675072
     10 O2         -1.3280    4.3920    3.4110 o         1 MOL     -0.561628
     11 C5         -1.9380    1.4410    3.2950 c3        1 MOL     -0.173444
     12 C6         -2.6280    1.3830    1.9630 c         1 MOL      0.700017
     13 O3         -3.7310    0.7850    2.0000 o         1 MOL     -0.694240
     14 O4         -2.1300    1.6440    0.8480 o         1 MOL     -0.694240
     15 H4         -0.6600    2.0330    5.4100 hn        1 MOL      0.339748
     16 H5          0.1720    1.6210    2.6100 h1        1 MOL      0.052961
     17 H6         -2.5080    1.9350    4.0890 hc        1 MOL      0.063458
     18 H7         -1.7620    0.4180    3.6390 hc        1 MOL      0.063458
     19 N2         -0.0460    3.8400    1.6260 n         1 MOL     -0.550387
     20 C7          0.0500    5.1910    0.9940 c3        1 MOL      0.185478
     21 C8         -1.2140    5.6130    0.2080 c         1 MOL      0.286486
     22 O5         -1.7520    6.6820    0.4710 o         1 MOL     -0.516980
     23 C9          1.4260    5.2920    0.2510 c3        1 MOL     -0.007718
     24 C10         1.4840    6.6600   -0.5360 c3        1 MOL      0.051770
     25 C11         2.8680    6.9770   -1.2150 c3        1 MOL     -0.161559
     26 C12         2.9100    8.1970   -2.0390 c3        1 MOL      0.199601
     27 N3          4.1940    8.3580   -2.7100 n4        1 MOL     -0.466944
     28 H8          0.2470    2.9900    1.1720 hn        1 MOL      0.259968
     29 H9          0.1380    5.9380    1.7800 h1        1 MOL      0.084290
     30 H10         1.4790    4.4720   -0.4720 hc        1 MOL      0.034489
     31 H11         2.2050    5.3070    1.0080 hc        1 MOL      0.034489
     32 H12         1.1710    7.3870    0.2130 hc        1 MOL     -0.003582
     33 H13         0.8050    6.5390   -1.3850 hc        1 MOL     -0.003582
     34 H14         3.2160    6.1570   -1.8410 hc        1 MOL      0.050283
     35 H15         3.6500    7.0420   -0.4590 hc        1 MOL      0.050283
     36 H16         2.6850    9.1180   -1.4990 hx        1 MOL      0.052130
     37 H17         2.1210    8.1990   -2.7840 hx        1 MOL      0.052130
     38 H18         4.3880    7.5490   -3.2830 hn        1 MOL      0.354365
     39 H19         4.1110    9.2240   -3.2120 hn        1 MOL      0.354365
     40 H20         4.9320    8.4300   -2.0290 hn        1 MOL      0.354365
     41 N4         -1.7570    4.7990   -0.7190 n         1 MOL     -0.272904
     42 C13        -2.9990    5.1240   -1.4750 c3        1 MOL      0.052342
     43 C14        -4.2850    4.6640   -0.7400 c         1 MOL      0.440911
     44 O6         -5.4000    5.0380   -0.9800 o         1 MOL     -0.559542
     45 C15        -2.9620    4.5790   -2.8480 c3        1 MOL     -0.288913
     46 C16        -2.9970    3.0310   -2.9350 c         1 MOL      0.919003
     47 O7         -3.1530    2.4610   -4.0230 o         1 MOL     -0.752662
     48 O8         -2.8660    2.3260   -1.8670 o         1 MOL     -0.752662
     49 H21        -1.2860    3.9200   -0.8850 hn        1 MOL      0.245736
     50 H22        -3.1480    6.2010   -1.5750 h1        1 MOL      0.096978
     51 H23        -2.0790    4.8680   -3.4200 hc        1 MOL      0.055224
     52 H24        -3.7450    5.0050   -3.4740 hc        1 MOL      0.055224
     53 N5         -4.0820    3.9120    0.2760 n         1 MOL     -0.094327
     54 C17        -5.2160    3.5310    1.1880 c3        1 MOL     -0.284954
     55 C18        -6.1100    2.3840    0.6730 c         1 MOL      0.623285
     56 O9         -7.3080    2.4370    1.0250 o         1 MOL     -0.584238
     57 H25        -3.1860    3.4950    0.4570 hn        1 MOL      0.232243
     58 H26        -5.8150    4.4290    1.3290 h1        1 MOL      0.128315
     59 H27        -4.8020    3.2200    2.1470 h1        1 MOL      0.128315
     60 N6         -5.5640    1.4580   -0.1470 n         1 MOL     -0.107640
     61 C19        -6.3340    0.4000   -0.7810 c3        1 MOL     -0.136026
     62 C20        -6.5400   -0.8650    0.0530 c         1 MOL      0.321417
     63 O10        -7.1180   -1.8040   -0.5080 o         1 MOL     -0.449780
     64 C21        -5.8300    0.2090   -2.2100 c3        1 MOL     -0.018375
     65 C22        -4.5820   -0.7060   -2.3000 c         1 MOL      0.375203
     66 N7         -4.6050   -1.6170   -3.1510 n         1 MOL     -0.584462
     67 O11        -3.6330   -0.6610   -1.5010 o         1 MOL     -0.477523
     68 H28        -4.5570    1.3990   -0.2240 hn        1 MOL     -0.098927
     69 H29        -7.3590    0.7160   -0.9280 h1        1 MOL      0.142024
     70 H30        -5.5500    1.1580   -2.6580 hc        1 MOL      0.060374
     71 H31        -6.6230   -0.2160   -2.8370 hc        1 MOL      0.060374
     72 H32        -5.4000   -1.5620   -3.7680 hn        1 MOL      0.328818
     73 H33        -3.7540   -2.1240   -3.3820 hn        1 MOL      0.328818
     74 N8         -5.9960   -1.0090    1.2900 n         1 MOL     -0.128588
     75 C23        -6.0580   -2.2230    2.2550 c3        1 MOL     -0.415231
     76 C24        -4.8650   -3.2190    2.0230 c         1 MOL      0.780653
     77 O12        -4.7630   -4.2670    2.6670 o         1 MOL     -0.588511
     78 H34        -5.3660   -0.2540    1.5290 hn        1 MOL      0.212016
     79 H35        -7.0070   -2.7500    2.1620 h1        1 MOL      0.171817
     80 H36        -5.9140   -1.6940    3.1970 h1        1 MOL      0.171817
     81 N9         -3.8750   -2.7560    1.2180 n         1 MOL     -0.768581
     82 C25        -2.7200   -3.5940    0.8110 c3        1 MOL      0.467377
     83 C26        -1.4080   -2.6980    0.7600 c         1 MOL      0.363283
     84 O13        -1.4860   -1.5640    0.2840 o         1 MOL     -0.558890
     85 C27        -2.9670   -4.3300   -0.5370 c3        1 MOL     -0.198543
     86 C28        -4.2070   -5.1700   -0.6110 ca        1 MOL      0.185409
     87 C29        -5.3790   -4.6640   -1.2100 ca        1 MOL     -0.295625
     88 C30        -4.0970   -6.5380   -0.2070 ca        1 MOL     -0.295625
     89 C31        -6.4500   -5.5670   -1.4490 ca        1 MOL     -0.130517
     90 C32        -5.2040   -7.3190   -0.4090 ca        1 MOL     -0.130517
     91 C33        -6.3670   -6.8920   -1.0530 ca        1 MOL      0.252970
     92 O14        -7.3940   -7.7910   -1.3470 oh        1 MOL     -0.507728
     93 H37        -4.0480   -1.8050    0.9200 hn        1 MOL      0.468517
     94 H38        -2.4990   -4.3650    1.5520 h1        1 MOL     -0.020241
     95 H39        -2.1340   -4.9820   -0.7910 hc        1 MOL      0.047615
     96 H40        -3.0670   -3.5480   -1.2930 hc        1 MOL      0.047615
     97 H41        -5.4750   -3.6370   -1.5420 ha        1 MOL      0.167918
     98 H42        -3.1630   -6.8340    0.2460 ha        1 MOL      0.167918
     99 H43        -7.3010   -5.1360   -1.9660 ha        1 MOL      0.111557
    100 H44        -5.1650   -8.3650   -0.1340 ha        1 MOL      0.111557
    101 H45        -7.1970   -8.7250   -1.2220 ho        1 MOL      0.364027
    102 N10        -0.2890   -3.2610    1.0840 n         1 MOL     -0.387831
    103 C34         1.0520   -2.6740    0.9280 c3        1 MOL     -0.029069
    104 C35         1.9670   -3.6430    0.1310 c         1 MOL      0.496118
    105 O15         1.9390   -4.8650    0.3400 o         1 MOL     -0.553265
    106 C36         1.7130   -2.3940    2.2970 c3        1 MOL      0.263531
    107 C37         1.7910   -3.6260    3.2520 c3        1 MOL     -0.111075
    108 C38         1.2070   -1.1100    2.9900 c3        1 MOL     -0.499594
    109 C39         2.2560   -3.3120    4.7120 c3        1 MOL     -0.092022
    110 H46        -0.3650   -4.1590    1.5300 hn        1 MOL      0.271487
    111 H47         0.9570   -1.7430    0.3730 h1        1 MOL      0.054922
    112 H48         2.7090   -2.0530    2.0040 hc        1 MOL     -0.055564
    113 H49         2.4640   -4.2850    2.7100 hc        1 MOL      0.037089
    114 H50         0.7940   -4.0560    3.2150 hc        1 MOL      0.037089
    115 H51         1.4640   -0.2480    2.3740 hc        1 MOL      0.154863
    116 H52         0.1340   -1.1970    3.1620 hc        1 MOL      0.154863
    117 H53         1.7070   -0.8510    3.9220 hc        1 MOL      0.154863
    118 H54         1.5340   -2.7590    5.2950 hc        1 MOL      0.030686
    119 H55         2.5150   -4.2310    5.2330 hc        1 MOL      0.030686
    120 H56         3.1650   -2.7150    4.5770 hc        1 MOL      0.030686
    121 N11         2.7540   -3.1020   -0.7270 n         1 MOL     -0.190984
    122 C40         3.9310   -3.7630   -1.2860 c3        1 MOL     -0.037533
    123 C41         5.1710   -3.5210   -0.4690 c         1 MOL      0.551895
    124 O16         5.2860   -2.6790    0.4410 o         1 MOL     -0.449330
    125 C42         4.1340   -3.2430   -2.6940 c3        1 MOL     -0.100975
    126 O17         4.5630   -1.8980   -2.7880 oh        1 MOL     -0.295422
    127 H57         2.8310   -2.0890   -0.8100 hn        1 MOL      0.166300
    128 H58         3.6720   -4.8210   -1.3590 h1        1 MOL      0.109548
    129 H59         3.2180   -3.4570   -3.2510 h1        1 MOL      0.069863
    130 H60         4.9400   -3.7220   -3.2610 h1        1 MOL      0.069863
    131 H61         4.3040   -1.5490   -3.6490 ho        1 MOL      0.346323
    132 N12         6.2580   -4.2850   -0.8400 n         1 MOL     -0.557203
    133 C43         7.6610   -4.0190   -0.5880 c3        1 MOL      0.315836
    134 C44         8.1410   -2.5940   -0.9060 c         1 MOL      0.350566
    135 O18         8.9730   -1.9880   -0.2520 o         1 MOL     -0.520186
    136 C45         8.6000   -5.0100   -1.3240 c3        1 MOL     -0.462521
    137 H62         6.0550   -4.9900   -1.5320 hn        1 MOL      0.295409
    138 H63         7.8790   -4.1220    0.4780 h1        1 MOL      0.057143
    139 H64         8.7930   -5.8630   -0.6730 hc        1 MOL      0.131872
    140 H65         8.2220   -5.3060   -2.3070 hc        1 MOL      0.131872
    141 H66         9.5310   -4.4750   -1.5410 hc        1 MOL      0.131872
    142 N13         7.5030   -2.0430   -1.8990 n         1 MOL     -0.209219
    143 C46         7.7760   -0.6540   -2.3170 c3        1 MOL      0.047312
    144 C47         7.1410    0.3360   -1.3330 c         1 MOL      0.387971
    145 O19         7.8300    1.3390   -1.1400 o         1 MOL     -0.533491
    146 C48         7.3030   -0.3660   -3.7270 c3        1 MOL     -0.359590
    147 H67         6.7410   -2.5380   -2.3350 hn        1 MOL      0.152497
    148 H68         8.8580   -0.6570   -2.4190 h1        1 MOL      0.134384
    149 H69         7.7970   -1.1020   -4.3490 hc        1 MOL      0.098324
    150 H70         6.2080   -0.3590   -3.7130 hc        1 MOL      0.098324
    151 H71         7.5270    0.6480   -4.0450 hc        1 MOL      0.098324
    152 N14         5.9400    0.1010   -0.7470 n         1 MOL      0.052265
    153 C49         5.3030    0.8860    0.3600 c3        1 MOL     -0.243207
    154 C50         6.0130    0.5240    1.7670 c         1 MOL      0.505620
    155 O20         6.0190    1.3700    2.6550 o         1 MOL     -0.524645
    156 C51         3.7630    0.6650    0.3640 c3        1 MOL      0.092669
    157 C52         3.0750    1.1150   -0.8610 c3        1 MOL      0.035540
    158 C53         1.5890    0.8640   -0.7840 c         1 MOL      0.684531
    159 O21         0.7170    1.5470   -0.1220 o         1 MOL     -0.764753
    160 O22         1.1770   -0.1090   -1.4510 o         1 MOL     -0.764753
    161 H72         5.4100   -0.7120   -1.0430 hn        1 MOL     -0.055274
    162 H73         5.5250    1.9220    0.0960 h1        1 MOL      0.116806
    163 H74         3.4170    1.1790    1.2630 hc        1 MOL      0.054590
    164 H75         3.4630   -0.3740    0.4660 hc        1 MOL      0.054590
    165 H76         3.5440    0.6670   -1.7330 hc        1 MOL     -0.067016
    166 H77         3.2370    2.1910   -0.9620 hc        1 MOL     -0.067016
    167 N15         6.6740   -0.6410    1.9480 n         1 MOL     -0.137898
    168 C54         7.5420   -0.8650    3.0880 c3        1 MOL     -0.334633
    169 H78         7.4810   -1.9110    3.3910 h1        1 MOL      0.128346
    170 H79         8.5690   -0.6260    2.8160 h1        1 MOL      0.128346
    171 H80         7.2280   -0.2290    3.9160 h1        1 MOL      0.128346
    172 H81         6.5720   -1.3540    1.2500 hn        1 MOL      0.174684
    173 Ca1        -1.3980    0.5230   -1.2930 Ca        1 MOL      1.806616
    174 O23        -0.5950   -2.3790   -2.5640 oh        1 MOL     -0.853342
    175 H82         0.2830   -2.6120   -2.2600 ho        1 MOL      0.407787
    176 H83        -0.6680   -2.8000   -3.4170 ho        1 MOL      0.407787
    177 O24        -1.7740    0.0670   -4.0930 oh        1 MOL     -0.853342
    178 H84        -2.1430   -0.6570   -4.5930 ho        1 MOL      0.407787
    179 H85        -2.2700    0.8340   -4.3790 ho        1 MOL      0.407787
    180 O25        -0.1790    2.7560   -2.6880 oh        1 MOL     -0.853342
    181 H86        -0.0530    2.8800   -3.6360 ho        1 MOL      0.407787
    182 H87         0.6530    3.0380   -2.3030 ho        1 MOL      0.407787
@<TRIPOS>BOND
     1    1    2 1   
     2    1    4 1   
     3    1    5 1   
     4    1    6 1   
     5    2    3 2   
     6    2    7 1   
     7    7    8 1   
     8    7   15 1   
     9    8    9 1   
    10    8   11 1   
    11    8   16 1   
    12    9   10 2   
    13    9   19 1   
    14   11   12 1   
    15   11   17 1   
    16   11   18 1   
    17   12   13 1   
    18   12   14 1   
    19   19   20 1   
    20   19   28 1   
    21   20   21 1   
    22   20   23 1   
    23   20   29 1   
    24   21   22 2   
    25   21   41 1   
    26   23   24 1   
    27   23   30 1   
    28   23   31 1   
    29   24   25 1   
    30   24   32 1   
    31   24   33 1   
    32   25   26 1   
    33   25   34 1   
    34   25   35 1   
    35   26   27 1   
    36   26   36 1   
    37   26   37 1   
    38   27   38 1   
    39   27   39 1   
    40   27   40 1   
    41   41   42 1   
    42   41   49 1   
    43   42   43 1   
    44   42   45 1   
    45   42   50 1   
    46   43   44 2   
    47   43   53 1   
    48   45   46 1   
    49   45   51 1   
    50   45   52 1   
    51   46   47 1   
    52   46   48 1   
    53   53   54 1   
    54   53   57 1   
    55   54   55 1   
    56   54   58 1   
    57   54   59 1   
    58   55   56 2   
    59   55   60 1   
    60   60   61 1   
    61   60   68 1   
    62   61   62 1   
    63   61   64 1   
    64   61   69 1   
    65   62   63 2   
    66   62   74 1   
    67   64   65 1   
    68   64   70 1   
    69   64   71 1   
    70   65   66 1   
    71   65   67 2   
    72   66   72 1   
    73   66   73 1   
    74   74   75 1   
    75   74   78 1   
    76   75   76 1   
    77   75   79 1   
    78   75   80 1   
    79   76   77 2   
    80   76   81 1   
    81   81   82 1   
    82   81   93 1   
    83   82   83 1   
    84   82   85 1   
    85   82   94 1   
    86   83   84 2   
    87   83  102 1   
    88   85   86 1   
    89   85   95 1   
    90   85   96 1   
    91   86   87 ar  
    92   86   88 ar  
    93   87   89 ar  
    94   87   97 1   
    95   88   90 ar  
    96   88   98 1   
    97   89   91 ar  
    98   89   99 1   
    99   90   91 ar  
   100   90  100 1   
   101   91   92 1   
   102   92  101 1   
   103  102  103 1   
   104  102  110 1   
   105  103  104 1   
   106  103  106 1   
   107  103  111 1   
   108  104  105 2   
   109  104  121 1   
   110  106  107 1   
   111  106  108 1   
   112  106  112 1   
   113  107  109 1   
   114  107  113 1   
   115  107  114 1   
   116  108  115 1   
   117  108  116 1   
   118  108  117 1   
   119  109  118 1   
   120  109  119 1   
   121  109  120 1   
   122  121  122 1   
   123  121  127 1   
   124  122  123 1   
   125  122  125 1   
   126  122  128 1   
   127  123  124 2   
   128  123  132 1   
   129  125  126 1   
   130  125  129 1   
   131  125  130 1   
   132  126  131 1   
   133  132  133 1   
   134  132  137 1   
   135  133  134 1   
   136  133  136 1   
   137  133  138 1   
   138  134  135 2   
   139  134  142 1   
   140  136  139 1   
   141  136  140 1   
   142  136  141 1   
   143  142  143 1   
   144  142  147 1   
   145  143  144 1   
   146  143  146 1   
   147  143  148 1   
   148  144  145 2   
   149  144  152 1   
   150  146  149 1   
   151  146  150 1   
   152  146  151 1   
   153  152  153 1   
   154  152  161 1   
   155  153  154 1   
   156  153  156 1   
   157  153  162 1   
   158  154  155 2   
   159  154  167 1   
   160  156  157 1   
   161  156  163 1   
   162  156  164 1   
   163  157  158 1   
   164  157  165 1   
   165  157  166 1   
   166  158  159 1   
   167  158  160 1   
   168  167  168 1   
   169  167  172 1   
   170  168  169 1   
   171  168  170 1   
   172  168  171 1   
   173  174  175 1   
   174  174  176 1   
   175  177  178 1   
   176  177  179 1   
   177  180  181 1   
   178  180  182 1   
@<TRIPOS>SUBSTRUCTURE
     1 MOL         1 TEMP              0 ****  ****    0 ROOT
