@<TRIPOS>MOLECULE
MOL
  175   173     1     0     0
SMALL
resp


@<TRIPOS>ATOM
      1 C1          0.6840    4.9340    5.1240 c3        1 MOL     -0.398717
      2 C2          0.1160    4.8150    3.7350 c         1 MOL      0.664578
      3 O1          0.8240    4.8070    2.7430 o         1 MOL     -0.537561
      4 H1          1.3330    4.0810    5.3230 hc        1 MOL      0.097871
      5 H2          1.2610    5.8560    5.2030 hc        1 MOL      0.097871
      6 H3         -0.1280    4.9490    5.8500 hc        1 MOL      0.097871
      7 N1         -1.1710    4.4960    3.6220 n         1 MOL     -0.545007
      8 C3         -1.7080    3.9900    2.3990 c3        1 MOL     -0.094073
      9 C4         -1.8740    5.0440    1.2590 c         1 MOL      0.677089
     10 O2         -2.1070    6.2120    1.5580 o         1 MOL     -0.584723
     11 C5         -3.1730    3.5790    2.7030 c3        1 MOL     -0.161092
     12 C6         -3.7860    2.5220    1.8220 c         1 MOL      0.722530
     13 O3         -4.9380    2.1570    2.2330 o         1 MOL     -0.699519
     14 O4         -3.2600    2.0720    0.8020 o         1 MOL     -0.699519
     15 H4         -1.7620    4.5150    4.4410 hn        1 MOL      0.321359
     16 H5         -1.1090    3.1410    2.0650 h1        1 MOL      0.184217
     17 H6         -3.7620    4.4910    2.7470 hc        1 MOL      0.052857
     18 H7         -3.2900    3.1380    3.6940 hc        1 MOL      0.052857
     19 N2         -2.0580    4.6380    0.0040 n         1 MOL     -0.637726
     20 C7         -2.4420    5.4530   -1.1500 c3        1 MOL      0.275412
     21 C8         -3.6410    4.8490   -1.9580 c         1 MOL      0.358976
     22 O5         -4.1370    5.5690   -2.8390 o         1 MOL     -0.585335
     23 C9         -1.1140    5.5100   -2.0170 c3        1 MOL     -0.219737
     24 H8         -1.9830    3.6480   -0.1780 hn        1 MOL      0.353821
     25 H9         -2.7320    6.4220   -0.7560 h1        1 MOL      0.041087
     26 H10        -0.3730    5.9970   -1.3910 hc        1 MOL      0.061204
     27 H11        -0.8020    4.5350   -2.4140 hc        1 MOL      0.061204
     28 H12        -1.0820    6.2610   -2.8080 hc        1 MOL      0.061204
     29 N3         -4.1190    3.6460   -1.7860 n         1 MOL     -0.171926
     30 C10        -5.2720    3.0770   -2.6140 c3        1 MOL      0.024176
     31 C11        -6.3940    2.2980   -1.8960 c         1 MOL      0.257818
     32 O6         -7.4520    2.2920   -2.5100 o         1 MOL     -0.498071
     33 C12        -4.6900    2.1880   -3.6670 c3        1 MOL     -0.047212
     34 C13        -3.5230    1.3000   -3.2520 c         1 MOL      0.701413
     35 O7         -3.4780    0.8260   -2.1540 o         1 MOL     -0.711108
     36 O8         -2.6560    1.0700   -4.1520 o         1 MOL     -0.711108
     37 H13        -3.7890    2.9850   -1.0960 hn        1 MOL      0.183257
     38 H14        -5.8520    3.8640   -3.0980 h1        1 MOL      0.103556
     39 H15        -4.2880    2.8570   -4.4300 hc        1 MOL      0.005944
     40 H16        -5.4020    1.5940   -4.2280 hc        1 MOL      0.005944
     41 N4         -6.2520    1.7180   -0.6810 n         1 MOL      0.001110
     42 C14        -7.3300    0.9250   -0.0850 c3        1 MOL     -0.194002
     43 C15        -7.5240   -0.4820   -0.7590 c         1 MOL      0.436374
     44 O9         -8.6040   -1.0780   -0.7860 o         1 MOL     -0.566518
     45 H17        -5.4440    1.9000   -0.1000 hn        1 MOL      0.061922
     46 H18        -8.2210    1.5210   -0.2780 h1        1 MOL      0.094026
     47 H19        -7.2240    0.7440    0.9760 h1        1 MOL      0.094026
     48 N5         -6.3840   -0.9740   -1.3270 n         1 MOL     -0.135408
     49 C16        -6.3240   -2.3600   -1.9700 c3        1 MOL     -0.131875
     50 C17        -6.2170   -3.5210   -0.9580 c         1 MOL      0.481486
     51 O10        -6.0260   -4.6820   -1.2930 o         1 MOL     -0.521889
     52 C18        -5.1720   -2.3160   -3.0100 c3        1 MOL     -0.040805
     53 C19        -3.6790   -2.3350   -2.4120 c         1 MOL      0.347849
     54 N6         -2.6550   -2.5210   -3.2240 n         1 MOL     -0.598112
     55 O11        -3.5670   -2.1250   -1.1940 o         1 MOL     -0.061219
     56 H20        -5.5940   -0.3670   -1.4580 hn        1 MOL      0.182896
     57 H21        -7.2880   -2.5430   -2.4570 h1        1 MOL      0.121413
     58 H22        -5.3980   -1.3890   -3.5390 hc        1 MOL      0.024912
     59 H23        -5.2410   -3.1460   -3.7060 hc        1 MOL      0.024912
     60 H24        -2.8090   -2.8360   -4.1780 hn        1 MOL      0.337966
     61 H25        -1.7110   -2.4120   -2.8950 hn        1 MOL      0.337966
     62 N7         -6.2840   -3.1940    0.3470 n         1 MOL     -0.205482
     63 C20        -6.3430   -4.1040    1.4840 c3        1 MOL     -0.365852
     64 C21        -4.8830   -4.4380    1.9750 c         1 MOL      0.612436
     65 O12        -4.7940   -5.2550    2.9020 o         1 MOL     -0.569053
     66 H26        -6.3840   -2.2270    0.5940 hn        1 MOL      0.215087
     67 H27        -6.8670   -5.0170    1.1930 h1        1 MOL      0.158884
     68 H28        -6.8330   -3.6360    2.3400 h1        1 MOL      0.158884
     69 N8         -3.8570   -3.8300    1.3210 n         1 MOL     -0.405188
     70 C22        -2.4760   -4.3670    1.5730 c3        1 MOL     -0.065156
     71 C23        -1.4430   -3.2470    1.5190 c         1 MOL      0.805523
     72 O13        -1.6780   -2.2510    0.8690 o         1 MOL     -0.647938
     73 C24        -2.0940   -5.3770    0.4540 c3        1 MOL      0.443101
     74 C25        -2.9270   -6.7170    0.3460 c3        1 MOL     -0.549252
     75 O14        -2.2510   -4.8730   -0.8810 oh        1 MOL     -0.543793
     76 H29        -4.1680   -3.3100    0.5180 hn        1 MOL      0.078093
     77 H30        -2.4690   -4.7830    2.5770 h1        1 MOL      0.068166
     78 H31        -1.0840   -5.7180    0.6820 h1        1 MOL     -0.020165
     79 H32        -2.0470   -3.9330   -0.9130 ho        1 MOL      0.266047
     80 H33        -2.3990   -7.3850   -0.3440 hc        1 MOL      0.145787
     81 H34        -3.0560   -7.1390    1.3400 hc        1 MOL      0.145787
     82 H35        -3.9600   -6.5240    0.0650 hc        1 MOL      0.145787
     83 N9         -0.3530   -3.4360    2.2760 n         1 MOL     -0.857786
     84 C26         0.7700   -2.4480    2.3130 c3        1 MOL      0.108173
     85 C27         1.6920   -2.6970    1.1420 c         1 MOL      0.559006
     86 O15         2.2440   -3.7670    1.0600 o         1 MOL     -0.587673
     87 C28         1.5890   -2.3790    3.6280 c3        1 MOL      0.277382
     88 C29         0.6700   -2.4040    4.8850 c3        1 MOL      0.024986
     89 C30         2.4570   -1.1740    3.5300 c3        1 MOL     -0.294489
     90 C31         1.3960   -1.8780    6.1370 c3        1 MOL     -0.141115
     91 H36        -0.1530   -4.3390    2.6750 hn        1 MOL      0.364525
     92 H37         0.2450   -1.4950    2.2940 h1        1 MOL      0.211254
     93 H38         2.2220   -3.2680    3.6080 hc        1 MOL     -0.058972
     94 H39         0.4200   -3.4390    5.1270 hc        1 MOL     -0.021610
     95 H40        -0.1970   -1.7660    4.7240 hc        1 MOL     -0.021610
     96 H41         3.1150   -1.0730    4.3850 hc        1 MOL      0.041347
     97 H42         3.2020   -1.2200    2.7450 hc        1 MOL      0.041347
     98 H43         1.8340   -0.2890    3.4010 hc        1 MOL      0.041347
     99 H44         2.3760   -2.3280    6.3060 hc        1 MOL      0.028629
    100 H45         1.6370   -0.8320    5.9640 hc        1 MOL      0.028629
    101 H46         0.7860   -1.9200    7.0420 hc        1 MOL      0.028629
    102 N10         1.7030   -1.7210    0.1900 n         1 MOL     -0.146525
    103 C32         2.5260   -1.8040   -1.0490 c3        1 MOL      0.065409
    104 C33         4.0750   -1.5160   -0.7510 c         1 MOL      0.354953
    105 O16         4.3220   -0.9680    0.3170 o         1 MOL     -0.303482
    106 C34         1.8380   -0.8780   -2.0820 c3        1 MOL     -0.303479
    107 C35         0.5050   -1.4080   -2.4570 c         1 MOL      0.740965
    108 O17        -0.5460   -1.0090   -1.8620 o         1 MOL     -0.690289
    109 O18         0.4800   -2.3720   -3.2500 o         1 MOL     -0.690289
    110 H47         1.1420   -0.9050    0.3610 hn        1 MOL     -0.014859
    111 H48         2.4470   -2.8270   -1.4280 h1        1 MOL      0.065370
    112 H49         2.4400   -0.9100   -2.9840 hc        1 MOL      0.095636
    113 H50         1.7850    0.1580   -1.7240 hc        1 MOL      0.095636
    114 N11         5.0810   -1.7900   -1.5740 n         1 MOL     -0.590001
    115 C36         6.5010   -1.6270   -1.3170 c3        1 MOL      0.396299
    116 C37         6.8270   -0.1270   -1.1810 c         1 MOL      0.272374
    117 O19         7.4800    0.2060   -0.1750 o         1 MOL     -0.496373
    118 C38         7.4540   -2.2650   -2.3870 c3        1 MOL     -0.358236
    119 C39         8.8970   -2.1380   -2.0710 ca        1 MOL      0.313576
    120 C40         9.3920   -2.7870   -0.9120 ca        1 MOL     -0.351810
    121 C41         9.7350   -1.3370   -2.8890 ca        1 MOL     -0.351810
    122 C42        10.7430   -2.6430   -0.5180 ca        1 MOL      0.051148
    123 C43        11.0410   -1.1800   -2.4380 ca        1 MOL      0.051148
    124 C44        11.5910   -1.8350   -1.3070 ca        1 MOL     -0.275671
    125 H51         4.8590   -1.9750   -2.5430 hn        1 MOL      0.307518
    126 H52         6.8050   -2.0820   -0.3740 h1        1 MOL      0.069633
    127 H53         7.2150   -2.0100   -3.4200 hc        1 MOL      0.088857
    128 H54         7.3440   -3.3420   -2.2920 hc        1 MOL      0.088857
    129 H55         8.7590   -3.3640   -0.2600 ha        1 MOL      0.167446
    130 H56         9.4040   -0.7100   -3.7110 ha        1 MOL      0.167446
    131 H57        11.0310   -3.1390    0.3860 ha        1 MOL      0.080104
    132 H58        11.6380   -0.5440   -3.0690 ha        1 MOL      0.080104
    133 H59        12.6210   -1.6170   -1.0410 ha        1 MOL      0.131787
    134 N12         6.2750    0.8340   -1.9260 n         1 MOL     -0.042475
    135 C45         6.4760    2.1940   -1.6340 c3        1 MOL      0.063378
    136 C46         5.7980    2.6690   -0.3210 c         1 MOL      0.161968
    137 O20         6.3210    3.5590    0.3570 o         1 MOL     -0.478529
    138 C47         5.8610    2.9510   -2.7610 c3        1 MOL      0.047616
    139 C48         6.0180    2.0190   -3.9660 c3        1 MOL     -0.187675
    140 C49         5.7530    0.6730   -3.2590 c3        1 MOL      0.055331
    141 H60         7.5230    2.5240   -1.6790 h1        1 MOL      0.062495
    142 H61         4.8010    3.1100   -2.5770 hc        1 MOL      0.019252
    143 H62         6.4140    3.8820   -2.9160 hc        1 MOL      0.019252
    144 H63         5.2070    2.1980   -4.6620 hc        1 MOL      0.060142
    145 H64         7.0130    2.1340   -4.3960 hc        1 MOL      0.060142
    146 H65         4.6860    0.4650   -3.2650 h1        1 MOL      0.019125
    147 H66         6.2100   -0.1330   -3.8360 h1        1 MOL      0.019125
    148 N13         4.8280    1.8740    0.1540 n         1 MOL      0.019114
    149 C50         4.1610    2.0670    1.4980 c3        1 MOL     -0.074032
    150 C51         4.9350    1.4300    2.6710 c         1 MOL      0.397958
    151 O21         5.1160    2.0330    3.7070 o         1 MOL     -0.539388
    152 C52         2.7190    1.5520    1.3730 c3        1 MOL     -0.052326
    153 C53         1.9140    2.2110    0.2420 c3        1 MOL     -0.060275
    154 C54         0.5110    1.6370    0.2110 c         1 MOL      0.616647
    155 O22         0.2650    0.5470    0.7150 o         1 MOL     -0.685336
    156 O23        -0.4200    2.1640   -0.4400 o         1 MOL     -0.685336
    157 H67         4.6260    1.1560   -0.5280 hn        1 MOL      0.123347
    158 H68         4.0950    3.1370    1.7120 h1        1 MOL      0.107407
    159 H69         2.1010    1.8210    2.2350 hc        1 MOL      0.051337
    160 H70         2.7630    0.4660    1.3240 hc        1 MOL      0.051337
    161 H71         2.3970    2.0040   -0.7060 hc        1 MOL      0.024745
    162 H72         1.7340    3.2760    0.3770 hc        1 MOL      0.024745
    163 N14         5.5590    0.2240    2.4470 n         1 MOL      0.099630
    164 C55         6.5040   -0.3820    3.3860 c3        1 MOL     -0.332973
    165 H73         6.8490   -1.3370    2.9880 h1        1 MOL      0.101144
    166 H74         7.3570    0.2830    3.5240 h1        1 MOL      0.101144
    167 H75         6.0110   -0.5460    4.3450 h1        1 MOL      0.101144
    168 H76         5.4680   -0.2060    1.5330 hn        1 MOL      0.006681
    169 Ca1        -2.1920   -0.0010   -0.1010 Ca        1 MOL      1.587049
    170 O24        -1.9910   -0.0100    2.6730 oh        1 MOL     -0.835163
    171 H77        -2.6470    0.1160    3.3500 ho        1 MOL      0.398390
    172 H78        -1.1500    0.1530    3.1170 ho        1 MOL      0.398390
    173 O25        -4.6220   -0.4640    1.1250 oh        1 MOL     -0.835163
    174 H79        -5.0720   -1.0830    1.7010 ho        1 MOL      0.398390
    175 H80        -4.6900    0.3810    1.5840 ho        1 MOL      0.398390
@<TRIPOS>BOND
     1    1    2 1   
     2    1    4 1   
     3    1    5 1   
     4    1    6 1   
     5    2    3 2   
     6    2    7 1   
     7    7    8 1   
     8    7   15 1   
     9    8    9 1   
    10    8   11 1   
    11    8   16 1   
    12    9   10 2   
    13    9   19 1   
    14   11   12 1   
    15   11   17 1   
    16   11   18 1   
    17   12   13 1   
    18   12   14 1   
    19   19   20 1   
    20   19   24 1   
    21   20   21 1   
    22   20   23 1   
    23   20   25 1   
    24   21   22 2   
    25   21   29 1   
    26   23   26 1   
    27   23   27 1   
    28   23   28 1   
    29   29   30 1   
    30   29   37 1   
    31   30   31 1   
    32   30   33 1   
    33   30   38 1   
    34   31   32 2   
    35   31   41 1   
    36   33   34 1   
    37   33   39 1   
    38   33   40 1   
    39   34   35 1   
    40   34   36 1   
    41   41   42 1   
    42   41   45 1   
    43   42   43 1   
    44   42   46 1   
    45   42   47 1   
    46   43   44 2   
    47   43   48 1   
    48   48   49 1   
    49   48   56 1   
    50   49   50 1   
    51   49   52 1   
    52   49   57 1   
    53   50   51 2   
    54   50   62 1   
    55   52   53 1   
    56   52   58 1   
    57   52   59 1   
    58   53   54 1   
    59   53   55 2   
    60   54   60 1   
    61   54   61 1   
    62   62   63 1   
    63   62   66 1   
    64   63   64 1   
    65   63   67 1   
    66   63   68 1   
    67   64   65 2   
    68   64   69 1   
    69   69   70 1   
    70   69   76 1   
    71   70   71 1   
    72   70   73 1   
    73   70   77 1   
    74   71   72 2   
    75   71   83 1   
    76   73   74 1   
    77   73   75 1   
    78   73   78 1   
    79   74   80 1   
    80   74   81 1   
    81   74   82 1   
    82   75   79 1   
    83   83   84 1   
    84   83   91 1   
    85   84   85 1   
    86   84   87 1   
    87   84   92 1   
    88   85   86 2   
    89   85  102 1   
    90   87   88 1   
    91   87   89 1   
    92   87   93 1   
    93   88   90 1   
    94   88   94 1   
    95   88   95 1   
    96   89   96 1   
    97   89   97 1   
    98   89   98 1   
    99   90   99 1   
   100   90  100 1   
   101   90  101 1   
   102  102  103 1   
   103  102  110 1   
   104  103  104 1   
   105  103  106 1   
   106  103  111 1   
   107  104  105 2   
   108  104  114 1   
   109  106  107 1   
   110  106  112 1   
   111  106  113 1   
   112  107  108 1   
   113  107  109 1   
   114  114  115 1   
   115  114  125 1   
   116  115  116 1   
   117  115  118 1   
   118  115  126 1   
   119  116  117 2   
   120  116  134 1   
   121  118  119 1   
   122  118  127 1   
   123  118  128 1   
   124  119  120 ar  
   125  119  121 ar  
   126  120  122 ar  
   127  120  129 1   
   128  121  123 ar  
   129  121  130 1   
   130  122  124 ar  
   131  122  131 1   
   132  123  124 ar  
   133  123  132 1   
   134  124  133 1   
   135  134  135 1   
   136  134  140 1   
   137  135  136 1   
   138  135  138 1   
   139  135  141 1   
   140  136  137 2   
   141  136  148 1   
   142  138  139 1   
   143  138  142 1   
   144  138  143 1   
   145  139  140 1   
   146  139  144 1   
   147  139  145 1   
   148  140  146 1   
   149  140  147 1   
   150  148  149 1   
   151  148  157 1   
   152  149  150 1   
   153  149  152 1   
   154  149  158 1   
   155  150  151 2   
   156  150  163 1   
   157  152  153 1   
   158  152  159 1   
   159  152  160 1   
   160  153  154 1   
   161  153  161 1   
   162  153  162 1   
   163  154  155 1   
   164  154  156 1   
   165  163  164 1   
   166  163  168 1   
   167  164  165 1   
   168  164  166 1   
   169  164  167 1   
   170  170  171 1   
   171  170  172 1   
   172  173  174 1   
   173  173  175 1   
@<TRIPOS>SUBSTRUCTURE
     1 MOL         1 TEMP              0 ****  ****    0 ROOT
