@<TRIPOS>MOLECULE
MOL
  186   183     1     0     0
SMALL
resp


@<TRIPOS>ATOM
      1 C1         -0.6970    1.8500    6.3370 c3        1 MOL     -0.299562
      2 C2         -1.0270    1.4970    4.8750 c         1 MOL      0.703189
      3 O1         -0.2160    1.9030    4.0170 o         1 MOL     -0.663840
      4 H1         -0.5130    0.9340    6.8990 hc        1 MOL      0.081592
      5 H2          0.1910    2.4800    6.3670 hc        1 MOL      0.081592
      6 H3         -1.5380    2.3840    6.7800 hc        1 MOL      0.081592
      7 N1         -2.2390    0.9660    4.5580 n         1 MOL     -0.701074
      8 C3         -2.7210    0.9180    3.1370 c3        1 MOL      0.419576
      9 C4         -2.9500    2.3220    2.4770 c         1 MOL      0.390698
     10 O2         -4.0930    2.8290    2.5430 o         1 MOL     -0.520857
     11 C5         -4.0080    0.0470    2.9700 c3        1 MOL     -0.312486
     12 C6         -4.5070   -0.0630    1.5090 c         1 MOL      0.727906
     13 O3         -5.6860   -0.3540    1.2800 o         1 MOL     -0.616227
     14 O4         -3.6920    0.0850    0.6300 o         1 MOL     -0.616227
     15 H4         -2.7560    0.5070    5.2990 hn        1 MOL      0.349566
     16 H5         -1.9400    0.4770    2.5260 h1        1 MOL     -0.148402
     17 H6         -4.7870    0.4170    3.6410 hc        1 MOL      0.062999
     18 H7         -3.7100   -0.9490    3.3210 hc        1 MOL      0.062999
     19 N2         -1.8810    2.9900    2.1250 n         1 MOL     -0.084992
     20 C7         -1.9310    4.4670    1.9830 c3        1 MOL     -0.245464
     21 C8         -2.9890    5.0480    1.0680 c         1 MOL      0.509102
     22 O5         -3.5000    6.1100    1.2300 o         1 MOL     -0.584507
     23 C9         -0.5520    5.1580    1.7360 c3        1 MOL     -0.153255
     24 C10        -0.0590    4.8170    0.3030 c3        1 MOL      0.367036
     25 C11         1.4430    5.0990    0.1730 c3        1 MOL     -0.210022
     26 C12         1.9690    4.1960   -0.9520 c3        1 MOL      0.341114
     27 N3          2.6050    4.9130   -2.0920 n4        1 MOL     -0.578599
     28 H8         -1.1190    2.4410    1.7620 hn        1 MOL      0.421305
     29 H9         -2.2020    4.7950    2.9870 h1        1 MOL      0.113202
     30 H10         0.1660    4.7400    2.4460 hc        1 MOL      0.065277
     31 H11        -0.5730    6.2440    1.8300 hc        1 MOL      0.065277
     32 H12        -0.5710    5.4240   -0.4420 hc        1 MOL     -0.103075
     33 H13        -0.1770    3.7430    0.1730 hc        1 MOL     -0.103075
     34 H14         1.9320    4.7750    1.0900 hc        1 MOL      0.041751
     35 H15         1.6980    6.1580    0.0680 hc        1 MOL      0.041751
     36 H16         1.2560    3.4530   -1.3000 hx        1 MOL     -0.012229
     37 H17         2.7220    3.4800   -0.6150 hx        1 MOL     -0.012229
     38 H18         3.3080    4.3450   -2.5380 hn        1 MOL      0.365172
     39 H19         2.0070    4.9760   -2.8940 hn        1 MOL      0.365172
     40 H20         2.8640    5.8450   -1.8180 hn        1 MOL      0.365172
     41 N4         -3.3380    4.3240    0.0390 n         1 MOL      0.107047
     42 C13        -4.2150    4.7040   -1.0750 c3        1 MOL     -0.406531
     43 C14        -5.5450    3.8160   -1.1240 c         1 MOL      0.495769
     44 O6         -6.2870    4.0320   -2.0910 o         1 MOL     -0.508661
     45 C15        -3.3710    4.6190   -2.3750 c3        1 MOL      0.094471
     46 C16        -2.4560    3.4460   -2.6390 c         1 MOL      0.667369
     47 O7         -1.8740    3.4190   -3.7240 o         1 MOL     -0.712124
     48 O8         -2.3700    2.5180   -1.7660 o         1 MOL     -0.712124
     49 H21        -2.9470    3.3980    0.0970 hn        1 MOL     -0.111349
     50 H22        -4.5540    5.7300   -0.9080 h1        1 MOL      0.169011
     51 H23        -2.7790    5.5250   -2.4890 hc        1 MOL      0.013466
     52 H24        -3.9780    4.5700   -3.2740 hc        1 MOL      0.013466
     53 N5         -5.7740    2.8160   -0.2780 n         1 MOL     -0.098582
     54 C17        -7.1460    2.3660   -0.1020 c3        1 MOL     -0.087066
     55 C18        -7.5140    1.2870   -1.1160 c         1 MOL      0.510989
     56 O9         -8.4690    1.4820   -1.8340 o         1 MOL     -0.563673
     57 H25        -5.1810    2.6460    0.5170 hn        1 MOL      0.153140
     58 H26        -7.8380    3.1920   -0.2560 h1        1 MOL      0.061134
     59 H27        -7.2700    2.0040    0.9180 h1        1 MOL      0.061134
     60 N6         -6.7460    0.2350   -1.3380 n         1 MOL     -0.090554
     61 C19        -7.0710   -0.8990   -2.2290 c3        1 MOL      0.044559
     62 C20        -7.1640   -2.2950   -1.5240 c         1 MOL      0.363391
     63 O10        -7.5140   -3.2960   -2.1140 o         1 MOL     -0.493498
     64 C21        -6.0220   -0.8980   -3.4000 c3        1 MOL     -0.324059
     65 C22        -4.6240   -0.8700   -2.8700 c         1 MOL      0.838354
     66 O11        -3.7750   -0.0860   -3.3730 o         1 MOL     -0.699801
     67 O12        -4.2220   -1.6070   -1.9240 o         1 MOL     -0.699801
     68 H28        -5.8810    0.1050   -0.8310 hn        1 MOL     -0.076411
     69 H29        -8.0450   -0.8270   -2.7070 h1        1 MOL      0.094930
     70 H30        -6.2370    0.0110   -3.9720 hc        1 MOL      0.107487
     71 H31        -6.1210   -1.7920   -4.0110 hc        1 MOL      0.107487
     72 N7         -6.7700   -2.3840   -0.2090 n         1 MOL     -0.193613
     73 C23        -6.6400   -3.6290    0.5550 c3        1 MOL     -0.169431
     74 C24        -5.3870   -4.5310    0.4940 c         1 MOL      0.527858
     75 O13        -5.4070   -5.6740    0.9590 o         1 MOL     -0.559720
     76 H32        -6.4790   -1.5480    0.2660 hn        1 MOL      0.161594
     77 H33        -7.4880   -4.2680    0.2910 h1        1 MOL      0.094715
     78 H34        -6.6880   -3.4000    1.6170 h1        1 MOL      0.094715
     79 N8         -4.2770   -3.9220    0.0540 n         1 MOL     -0.236975
     80 C25        -2.9570   -4.4600   -0.0280 c3        1 MOL     -0.166756
     81 C26        -1.9230   -3.5080    0.2990 c         1 MOL      0.607815
     82 O14        -2.0380   -2.2880   -0.0170 o         1 MOL     -0.604940
     83 C27        -2.7070   -5.0590   -1.3920 c3        1 MOL      0.453790
     84 C28        -3.4520   -6.3610   -1.5780 c3        1 MOL     -0.494207
     85 O15        -3.0690   -4.1480   -2.4450 oh        1 MOL     -0.628960
     86 H35        -4.3240   -2.9220   -0.0920 hn        1 MOL      0.263931
     87 H36        -2.9250   -5.3300    0.6310 h1        1 MOL      0.088013
     88 H37        -1.6250   -5.2230   -1.4320 h1        1 MOL     -0.012756
     89 H38        -3.5520   -3.4200   -2.0430 ho        1 MOL      0.381539
     90 H39        -4.5080   -6.1260   -1.4890 hc        1 MOL      0.133857
     91 H40        -3.1440   -6.7950   -2.5220 hc        1 MOL      0.133857
     92 H41        -3.2690   -7.1130   -0.8080 hc        1 MOL      0.133857
     93 N9         -0.8310   -4.1120    0.8280 n         1 MOL     -0.671685
     94 C29         0.3660   -3.3940    1.0440 c3        1 MOL      0.238181
     95 C30         1.4310   -3.6230   -0.0900 c         1 MOL      0.572807
     96 O16         1.5800   -4.7780   -0.4540 o         1 MOL     -0.590375
     97 C31         0.8250   -3.5740    2.4740 c3        1 MOL      0.078013
     98 C32         0.1050   -2.5130    3.3690 c3        1 MOL      0.019941
     99 C33         2.2930   -3.6050    2.8520 c3        1 MOL     -0.209705
    100 C34         0.2380   -2.7470    4.8620 c3        1 MOL     -0.190229
    101 H42        -0.8860   -5.0590    1.1510 hn        1 MOL      0.343636
    102 H43         0.1940   -2.3220    0.9440 h1        1 MOL      0.027983
    103 H44         0.5120   -4.5770    2.7720 hc        1 MOL      0.015316
    104 H45        -0.9650   -2.6000    3.1440 hc        1 MOL      0.044635
    105 H46         0.4370   -1.5040    3.1190 hc        1 MOL      0.044635
    106 H47         2.8360   -4.2250    2.1260 hc        1 MOL      0.038565
    107 H48         2.5520   -2.5410    2.7860 hc        1 MOL      0.038565
    108 H49         2.4660   -3.9860    3.8610 hc        1 MOL      0.038565
    109 H50         1.2440   -2.4370    5.1280 hc        1 MOL      0.044790
    110 H51        -0.4970   -2.1560    5.3990 hc        1 MOL      0.044790
    111 H52        -0.0110   -3.7690    5.1550 hc        1 MOL      0.044790
    112 N10         2.1760   -2.6570   -0.5330 n         1 MOL     -0.123353
    113 C35         3.3560   -2.6750   -1.3610 c3        1 MOL     -0.035274
    114 C36         4.6140   -2.4170   -0.5190 c         1 MOL      0.477828
    115 O17         4.5180   -1.9330    0.6090 o         1 MOL     -0.424143
    116 C37         3.2590   -1.6580   -2.5070 c3        1 MOL      0.414366
    117 C38         2.0440   -1.8860   -3.3470 c3        1 MOL     -0.456181
    118 O18         3.1760   -0.4170   -1.8570 oh        1 MOL     -0.629849
    119 H53         1.9000   -1.7680   -0.1540 hn        1 MOL     -0.145076
    120 H54         3.5000   -3.6620   -1.8050 h1        1 MOL      0.065607
    121 H55         4.1480   -1.6640   -3.1420 h1        1 MOL     -0.005443
    122 H56         2.3830   -0.4560   -1.3280 ho        1 MOL      0.396753
    123 H57         2.1000   -2.9210   -3.6850 hc        1 MOL      0.121610
    124 H58         1.1320   -1.6280   -2.8010 hc        1 MOL      0.121610
    125 H59         2.1630   -1.1630   -4.1470 hc        1 MOL      0.121610
    126 N11         5.8290   -2.5860   -1.0700 n         1 MOL     -0.404344
    127 C39         7.0840   -2.2730   -0.3650 c3        1 MOL      0.060588
    128 C40         7.1620   -0.8030    0.1170 c         1 MOL      0.182172
    129 O19         7.7640   -0.4970    1.1490 o         1 MOL     -0.468528
    130 C41         8.3040   -2.4540   -1.3810 c3        1 MOL      0.438865
    131 C42         9.6370   -2.4800   -0.6850 c3        1 MOL     -0.493847
    132 O20         8.1560   -3.6620   -2.1110 oh        1 MOL     -0.604445
    133 H60         5.8220   -2.8010   -2.0560 hn        1 MOL      0.210818
    134 H61         7.1750   -2.9620    0.4780 h1        1 MOL      0.143053
    135 H62         8.3040   -1.6230   -2.0790 h1        1 MOL     -0.064381
    136 H63         8.7210   -3.5460   -2.8770 ho        1 MOL      0.389498
    137 H64         9.6260   -3.4390   -0.1630 hc        1 MOL      0.131799
    138 H65        10.4180   -2.4550   -1.4440 hc        1 MOL      0.131799
    139 H66         9.7250   -1.6850    0.0600 hc        1 MOL      0.131799
    140 N12         6.5480    0.0890   -0.6520 n         1 MOL     -0.028928
    141 C43         6.4120    1.5780   -0.4820 c3        1 MOL      0.207357
    142 C44         5.2660    1.8230    0.4470 c         1 MOL      0.402470
    143 O21         4.8020    2.9780    0.4810 o         1 MOL     -0.584169
    144 C45         6.3070    2.2800   -1.8210 c3        1 MOL     -0.237959
    145 C46         7.4040    1.7950   -2.8480 c3        1 MOL      0.071361
    146 C47         8.8210    2.1620   -2.4620 c3        1 MOL     -0.111047
    147 C48         9.6070    2.4690   -3.6810 c3        1 MOL      0.042258
    148 N13        10.8660    3.2830   -3.3310 n4        1 MOL     -0.231174
    149 H67         5.8690   -0.2830   -1.3110 hn        1 MOL      0.156488
    150 H68         7.3090    1.9780   -0.0220 h1        1 MOL      0.033628
    151 H69         6.4500    3.3370   -1.6000 hc        1 MOL      0.069951
    152 H70         5.3240    2.0960   -2.2370 hc        1 MOL      0.069951
    153 H71         7.1360    2.2810   -3.7890 hc        1 MOL      0.004203
    154 H72         7.3140    0.7220   -2.9820 hc        1 MOL      0.004203
    155 H73         9.2080    1.3350   -1.8580 hc        1 MOL      0.061304
    156 H74         8.8890    3.0390   -1.8050 hc        1 MOL      0.061304
    157 H75         8.9140    2.9860   -4.3450 hx        1 MOL      0.078561
    158 H76         9.9010    1.5980   -4.2770 hx        1 MOL      0.078561
    159 H77        11.6470    2.6830   -3.1030 hn        1 MOL      0.246172
    160 H78        11.1970    3.8070   -4.1310 hn        1 MOL      0.246172
    161 H79        10.8020    3.8870   -2.5260 hn        1 MOL      0.246172
    162 N14         4.7770    0.8380    1.1980 n         1 MOL     -0.011324
    163 C49         3.8890    0.8910    2.4150 c3        1 MOL     -0.047158
    164 C50         4.5550    0.0840    3.5330 c         1 MOL      0.452980
    165 O22         4.6060    0.5340    4.6280 o         1 MOL     -0.518507
    166 C51         2.4970    0.4170    1.9690 c3        1 MOL      0.048016
    167 C52         1.7460    1.4410    1.0270 c3        1 MOL     -0.024258
    168 C53         0.5560    0.7580    0.3090 c         1 MOL      0.713237
    169 O23         0.7700   -0.2410   -0.4450 o         1 MOL     -0.716449
    170 O24        -0.5710    1.2250    0.3890 o         1 MOL     -0.716449
    171 H80         5.3630    0.0160    1.1110 hn        1 MOL     -0.156049
    172 H81         3.8310    1.9090    2.7960 h1        1 MOL      0.097807
    173 H82         1.9130    0.2660    2.8730 hc        1 MOL      0.041606
    174 H83         2.5710   -0.5560    1.4800 hc        1 MOL      0.041606
    175 H84         2.4430    1.8440    0.2930 hc        1 MOL      0.008300
    176 H85         1.3710    2.2120    1.7050 hc        1 MOL      0.008300
    177 N15         5.1430   -1.1160    3.2580 n         1 MOL     -0.070757
    178 C54         5.7660   -1.9550    4.3030 c3        1 MOL     -0.283477
    179 H86         6.7950   -2.1790    4.0230 h1        1 MOL      0.109496
    180 H87         5.7570   -1.4190    5.2530 h1        1 MOL      0.109496
    181 H88         5.2070   -2.8850    4.4050 h1        1 MOL      0.109496
    182 H89         5.1730   -1.4800    2.3260 hn        1 MOL      0.194228
    183 Ca1        -1.9450   -0.0200   -1.3050 Ca        1 MOL      1.727594
    184 O25        -1.5200   -1.9070   -3.3230 oh        1 MOL     -0.872446
    185 H90        -2.0410   -2.6790   -3.1220 ho        1 MOL      0.412838
    186 H91        -0.9560   -2.1850   -4.0520 ho        1 MOL      0.412838
@<TRIPOS>BOND
     1    1    2 1   
     2    1    4 1   
     3    1    5 1   
     4    1    6 1   
     5    2    3 2   
     6    2    7 1   
     7    7    8 1   
     8    7   15 1   
     9    8    9 1   
    10    8   11 1   
    11    8   16 1   
    12    9   10 2   
    13    9   19 1   
    14   11   12 1   
    15   11   17 1   
    16   11   18 1   
    17   12   13 1   
    18   12   14 1   
    19   19   20 1   
    20   19   28 1   
    21   20   21 1   
    22   20   23 1   
    23   20   29 1   
    24   21   22 2   
    25   21   41 1   
    26   23   24 1   
    27   23   30 1   
    28   23   31 1   
    29   24   25 1   
    30   24   32 1   
    31   24   33 1   
    32   25   26 1   
    33   25   34 1   
    34   25   35 1   
    35   26   27 1   
    36   26   36 1   
    37   26   37 1   
    38   27   38 1   
    39   27   39 1   
    40   27   40 1   
    41   41   42 1   
    42   41   49 1   
    43   42   43 1   
    44   42   45 1   
    45   42   50 1   
    46   43   44 2   
    47   43   53 1   
    48   45   46 1   
    49   45   51 1   
    50   45   52 1   
    51   46   47 1   
    52   46   48 1   
    53   53   54 1   
    54   53   57 1   
    55   54   55 1   
    56   54   58 1   
    57   54   59 1   
    58   55   56 2   
    59   55   60 1   
    60   60   61 1   
    61   60   68 1   
    62   61   62 1   
    63   61   64 1   
    64   61   69 1   
    65   62   63 2   
    66   62   72 1   
    67   64   65 1   
    68   64   70 1   
    69   64   71 1   
    70   65   66 1   
    71   65   67 1   
    72   72   73 1   
    73   72   76 1   
    74   73   74 1   
    75   73   77 1   
    76   73   78 1   
    77   74   75 2   
    78   74   79 1   
    79   79   80 1   
    80   79   86 1   
    81   80   81 1   
    82   80   83 1   
    83   80   87 1   
    84   81   82 2   
    85   81   93 1   
    86   83   84 1   
    87   83   85 1   
    88   83   88 1   
    89   84   90 1   
    90   84   91 1   
    91   84   92 1   
    92   85   89 1   
    93   93   94 1   
    94   93  101 1   
    95   94   95 1   
    96   94   97 1   
    97   94  102 1   
    98   95   96 2   
    99   95  112 1   
   100   97   98 1   
   101   97   99 1   
   102   97  103 1   
   103   98  100 1   
   104   98  104 1   
   105   98  105 1   
   106   99  106 1   
   107   99  107 1   
   108   99  108 1   
   109  100  109 1   
   110  100  110 1   
   111  100  111 1   
   112  112  113 1   
   113  112  119 1   
   114  113  114 1   
   115  113  116 1   
   116  113  120 1   
   117  114  115 2   
   118  114  126 1   
   119  116  117 1   
   120  116  118 1   
   121  116  121 1   
   122  117  123 1   
   123  117  124 1   
   124  117  125 1   
   125  118  122 1   
   126  126  127 1   
   127  126  133 1   
   128  127  128 1   
   129  127  130 1   
   130  127  134 1   
   131  128  129 2   
   132  128  140 1   
   133  130  131 1   
   134  130  132 1   
   135  130  135 1   
   136  131  137 1   
   137  131  138 1   
   138  131  139 1   
   139  132  136 1   
   140  140  141 1   
   141  140  149 1   
   142  141  142 1   
   143  141  144 1   
   144  141  150 1   
   145  142  143 2   
   146  142  162 1   
   147  144  145 1   
   148  144  151 1   
   149  144  152 1   
   150  145  146 1   
   151  145  153 1   
   152  145  154 1   
   153  146  147 1   
   154  146  155 1   
   155  146  156 1   
   156  147  148 1   
   157  147  157 1   
   158  147  158 1   
   159  148  159 1   
   160  148  160 1   
   161  148  161 1   
   162  162  163 1   
   163  162  171 1   
   164  163  164 1   
   165  163  166 1   
   166  163  172 1   
   167  164  165 2   
   168  164  177 1   
   169  166  167 1   
   170  166  173 1   
   171  166  174 1   
   172  167  168 1   
   173  167  175 1   
   174  167  176 1   
   175  168  169 1   
   176  168  170 1   
   177  177  178 1   
   178  177  182 1   
   179  178  179 1   
   180  178  180 1   
   181  178  181 1   
   182  184  185 1   
   183  184  186 1   
@<TRIPOS>SUBSTRUCTURE
     1 MOL         1 TEMP              0 ****  ****    0 ROOT
