@<TRIPOS>MOLECULE
MOL
  189   185     1     0     0
SMALL
resp


@<TRIPOS>ATOM
      1 C1          0.3730    2.5010   -5.5780 c3        1 MOL     -0.369404
      2 C2          0.8470    2.3650   -4.1310 c         1 MOL      0.723612
      3 O1          0.2570    2.9010   -3.1890 o         1 MOL     -0.629209
      4 H1          1.1850    2.2300   -6.2530 hc        1 MOL      0.099414
      5 H2         -0.4760    1.8380   -5.7470 hc        1 MOL      0.099414
      6 H3          0.0720    3.5310   -5.7660 hc        1 MOL      0.099414
      7 N1          1.9970    1.7050   -3.9250 n         1 MOL     -0.656415
      8 C3          2.4250    1.3230   -2.5620 c3        1 MOL      0.414394
      9 C4          3.1130    2.4450   -1.7420 c         1 MOL      0.310017
     10 O2          4.3310    2.5610   -1.6990 o         1 MOL     -0.464185
     11 C5          3.1650    0.0020   -2.6960 c3        1 MOL     -0.278113
     12 C6          3.9830   -0.3470   -1.4960 c         1 MOL      0.629121
     13 O3          3.6120   -0.0400   -0.3160 o         1 MOL     -0.619407
     14 O4          5.0770   -0.9710   -1.6750 o         1 MOL     -0.619407
     15 H4          2.4120    1.2860   -4.7470 hn        1 MOL      0.331417
     16 H5          1.5430    1.1130   -1.9490 h1        1 MOL     -0.050879
     17 H6          3.9260    0.0940   -3.4720 hc        1 MOL      0.065466
     18 H7          2.4220   -0.7850   -2.8260 hc        1 MOL      0.065466
     19 N2          2.3180    3.2400   -0.9750 n         1 MOL     -0.205981
     20 C7          2.6740    4.6440   -0.5690 c3        1 MOL      0.001908
     21 C8          3.5690    4.6410    0.6830 c         1 MOL      0.403937
     22 O5          4.3790    5.5930    0.8360 o         1 MOL     -0.570938
     23 C9          1.4290    5.5540   -0.4650 c3        1 MOL     -0.267271
     24 C10         1.7010    7.0970   -0.1770 c3        1 MOL      0.034312
     25 C11         2.0480    7.8460   -1.4990 c3        1 MOL     -0.150498
     26 C12         1.6500    9.3240   -1.2690 c3        1 MOL      0.126598
     27 N3          2.7290   10.1680   -0.7780 n4        1 MOL     -0.534380
     28 H8          1.3360    2.9980   -1.0240 hn        1 MOL      0.306595
     29 H9          3.1870    5.0850   -1.4250 h1        1 MOL      0.091922
     30 H10         0.7270    5.2050    0.2970 hc        1 MOL      0.114680
     31 H11         0.8850    5.3900   -1.3940 hc        1 MOL      0.114680
     32 H12         2.4900    7.2330    0.5640 hc        1 MOL      0.029548
     33 H13         0.8880    7.6760    0.2750 hc        1 MOL      0.029548
     34 H14         1.3740    7.5700   -2.3170 hc        1 MOL      0.081667
     35 H15         3.1180    7.7700   -1.7270 hc        1 MOL      0.081667
     36 H16         0.7860    9.4210   -0.6130 hx        1 MOL      0.066595
     37 H17         1.1950    9.7160   -2.1840 hx        1 MOL      0.066595
     38 H18         3.5370   10.1030   -1.3740 hn        1 MOL      0.373190
     39 H19         2.4370   11.1300   -0.7760 hn        1 MOL      0.373190
     40 H20         3.1240    9.9020    0.1160 hn        1 MOL      0.373190
     41 N4          3.6050    3.5520    1.4680 n         1 MOL     -0.171793
     42 C13         4.6520    3.2810    2.4230 c3        1 MOL      0.087410
     43 C14         5.7850    2.2430    2.0330 c         1 MOL      0.400571
     44 O6          6.8450    2.1690    2.7360 o         1 MOL     -0.545001
     45 C15         3.9700    2.9310    3.7800 c3        1 MOL     -0.388099
     46 C16         2.8410    1.9140    3.8000 c         1 MOL      0.870036
     47 O7          2.6800    1.1330    2.8490 o         1 MOL     -0.717709
     48 O8          1.9840    1.9260    4.7180 o         1 MOL     -0.717709
     49 H21         2.8510    2.8960    1.3220 hn        1 MOL      0.183749
     50 H22         5.1690    4.2420    2.4930 h1        1 MOL      0.074868
     51 H23         3.5910    3.8350    4.2380 hc        1 MOL      0.089660
     52 H24         4.7000    2.4920    4.4630 hc        1 MOL      0.089660
     53 N5          5.6480    1.6180    0.8840 n         1 MOL      0.011737
     54 C17         6.7890    1.0520    0.2120 c3        1 MOL     -0.044094
     55 C18         7.2510   -0.3420    0.6920 c         1 MOL      0.510323
     56 O9          8.4360   -0.5640    0.9130 o         1 MOL     -0.590998
     57 H25         4.7490    1.5270    0.4510 hn        1 MOL     -0.093165
     58 H26         7.6360    1.7400    0.2110 h1        1 MOL      0.063546
     59 H27         6.6760    1.0380   -0.8800 h1        1 MOL      0.063546
     60 N6          6.2800   -1.2230    0.8950 n         1 MOL     -0.241794
     61 C19         6.4080   -2.5330    1.5660 c3        1 MOL     -0.017328
     62 C20         6.3110   -3.7560    0.6610 c         1 MOL      0.343613
     63 O10         6.4190   -4.8630    1.1750 o         1 MOL     -0.492678
     64 C21         5.5130   -2.6300    2.7990 c3        1 MOL     -0.275514
     65 C22         4.0810   -2.4170    2.4480 c         1 MOL      0.756938
     66 O11         3.3730   -1.7330    3.1340 o         1 MOL     -0.714037
     67 O12         3.5710   -2.7960    1.3810 o         1 MOL     -0.714037
     68 H28         5.3810   -0.8980    0.5690 hn        1 MOL      0.176597
     69 H29         7.3670   -2.5830    2.0890 h1        1 MOL      0.132473
     70 H30         5.8270   -1.8520    3.4930 hc        1 MOL      0.094489
     71 H31         5.6550   -3.6110    3.2420 hc        1 MOL      0.094489
     72 N7          6.0950   -3.4890   -0.6740 n         1 MOL     -0.212235
     73 C23         5.9030   -4.5160   -1.7000 c3        1 MOL     -0.243888
     74 C24         4.4770   -5.0720   -1.7830 c         1 MOL      0.542649
     75 O13         4.3100   -6.1310   -2.3810 o         1 MOL     -0.562974
     76 H32         5.9470   -2.5330   -0.9480 hn        1 MOL      0.209596
     77 H33         6.5320   -5.3620   -1.4270 h1        1 MOL      0.126297
     78 H34         6.2450   -4.0650   -2.6310 h1        1 MOL      0.126297
     79 N8          3.4710   -4.3550   -1.2480 n         1 MOL     -0.253630
     80 C25         2.1020   -4.8870   -1.1220 c3        1 MOL     -0.364095
     81 C26         1.1800   -3.6610   -1.1340 c         1 MOL      0.792807
     82 O14         1.5710   -2.5780   -0.7360 o         1 MOL     -0.684909
     83 C27         1.9020   -5.8110    0.1680 c3        1 MOL      0.391302
     84 C28         2.7160   -7.0370    0.2400 c3        1 MOL     -0.277655
     85 O15         2.0430   -5.0560    1.3710 oh        1 MOL     -0.644085
     86 H35         3.6200   -3.4980   -0.7520 hn        1 MOL      0.317747
     87 H36         1.8230   -5.5080   -1.9730 h1        1 MOL      0.126014
     88 H37         0.8420   -6.0710    0.2050 h1        1 MOL      0.009687
     89 H38         2.7570   -4.4140    1.2660 ho        1 MOL      0.417761
     90 H39         2.6890   -7.5380    1.2180 hc        1 MOL      0.077916
     91 H40         2.3170   -7.8410   -0.3680 hc        1 MOL      0.077916
     92 H41         3.7580   -6.7990    0.0200 hc        1 MOL      0.077916
     93 N9          0.0130   -3.9310   -1.6940 n         1 MOL     -0.635273
     94 C29        -1.0380   -2.8910   -1.7750 c3        1 MOL      0.036614
     95 C30        -2.2920   -3.3160   -1.0920 c         1 MOL      0.532390
     96 O16        -2.8390   -4.3480   -1.3590 o         1 MOL     -0.561605
     97 C31        -1.2410   -2.6230   -3.1920 c3        1 MOL      0.267998
     98 C32        -0.0270   -2.0020   -3.9410 c3        1 MOL     -0.025974
     99 C33        -2.4960   -1.6530   -3.3030 c3        1 MOL     -0.424075
    100 C34        -0.0100   -2.0500   -5.5130 c3        1 MOL     -0.137633
    101 H42        -0.1960   -4.8130   -2.1360 hn        1 MOL      0.332852
    102 H43        -0.7190   -1.9220   -1.4030 h1        1 MOL      0.112822
    103 H44        -1.4860   -3.5530   -3.6970 hc        1 MOL     -0.013703
    104 H45         0.8830   -2.5040   -3.6350 hc        1 MOL      0.038347
    105 H46        -0.0610   -0.9410   -3.7290 hc        1 MOL      0.038347
    106 H47        -3.4460   -2.1710   -3.1120 hc        1 MOL      0.077803
    107 H48        -2.4890   -0.7900   -2.6520 hc        1 MOL      0.077803
    108 H49        -2.5380   -1.2110   -4.3000 hc        1 MOL      0.077803
    109 H50        -0.9730   -1.6250   -5.8130 hc        1 MOL      0.028283
    110 H51         0.7630   -1.4820   -6.0160 hc        1 MOL      0.028283
    111 H52        -0.0100   -3.0880   -5.8610 hc        1 MOL      0.028283
    112 N10        -2.8690   -2.4660   -0.2270 n         1 MOL     -0.126065
    113 C35        -4.1480   -2.6110    0.4390 c3        1 MOL     -0.134313
    114 C36        -5.2520   -2.0100   -0.4440 c         1 MOL      0.408585
    115 O17        -5.0160   -1.0410   -1.1660 o         1 MOL     -0.266786
    116 C37        -4.1280   -1.8440    1.7850 c3        1 MOL      0.064589
    117 C38        -3.3550   -2.7950    2.7100 c3        1 MOL     -0.430262
    118 O18        -3.5610   -0.6050    1.5080 oh        1 MOL     -0.081204
    119 H53        -2.3540   -1.6210   -0.0590 hn        1 MOL      0.021917
    120 H54        -4.4240   -3.6350    0.6940 h1        1 MOL      0.107215
    121 H55        -5.1000   -1.6550    2.2390 h1        1 MOL      0.008519
    122 H56        -3.2040   -0.2630    2.3310 ho        1 MOL      0.283276
    123 H57        -2.3910   -2.9590    2.2300 hc        1 MOL      0.132390
    124 H58        -3.2130   -2.3070    3.6710 hc        1 MOL      0.132390
    125 H59        -3.8660   -3.7510    2.7820 hc        1 MOL      0.132390
    126 N11        -6.4880   -2.4500   -0.2390 n         1 MOL     -0.261427
    127 C39        -7.5880   -1.7360   -0.9080 c3        1 MOL     -0.485503
    128 C40        -7.6540   -0.2370   -0.6340 c         1 MOL      0.507812
    129 O19        -7.9940    0.5350   -1.5680 o         1 MOL     -0.475434
    130 C41        -8.9690   -2.3320   -0.4340 c3        1 MOL      0.433077
    131 C42        -9.0740   -3.7760   -0.7970 c3        1 MOL     -0.532533
    132 O20        -9.0390   -2.2400    0.9470 oh        1 MOL     -0.623624
    133 H60        -6.6070   -3.2050    0.4260 hn        1 MOL      0.286235
    134 H61        -7.4610   -1.8350   -1.9810 h1        1 MOL      0.238461
    135 H62        -9.8400   -1.7850   -0.7880 h1        1 MOL      0.034519
    136 H63        -9.9930   -2.2160    1.0670 ho        1 MOL      0.396923
    137 H64        -8.4830   -4.4040   -0.1430 hc        1 MOL      0.149362
    138 H65       -10.1240   -4.0330   -0.7300 hc        1 MOL      0.149362
    139 H66        -8.8230   -3.8470   -1.8580 hc        1 MOL      0.149362
    140 N12        -7.1360    0.2360    0.5430 n         1 MOL     -0.394093
    141 C43        -6.9530    1.6230    0.9430 c3        1 MOL     -0.016825
    142 C44        -5.9390    2.3900    0.0470 c         1 MOL      0.357322
    143 O21        -6.2500    3.4680   -0.4210 o         1 MOL     -0.481886
    144 C45        -6.4710    1.6860    2.4520 c3        1 MOL     -0.019628
    145 C46        -7.6600    1.3790    3.3850 c3        1 MOL      0.281662
    146 C47        -7.4370    1.4310    4.8660 c3        1 MOL     -0.106298
    147 C48        -6.2630    0.6070    5.3950 c3        1 MOL      0.037025
    148 N13        -6.2930    0.6090    6.9330 n4        1 MOL     -0.294774
    149 H67        -6.7820   -0.5330    1.1020 hn        1 MOL      0.301096
    150 H68        -7.9040    2.1360    0.8750 h1        1 MOL      0.106023
    151 H69        -6.0870    2.6890    2.6700 hc        1 MOL     -0.001111
    152 H70        -5.6830    0.9490    2.6220 hc        1 MOL     -0.001111
    153 H71        -8.0340    0.3800    3.1970 hc        1 MOL     -0.064467
    154 H72        -8.4510    2.1040    3.1950 hc        1 MOL     -0.064467
    155 H73        -8.3820    1.2760    5.3900 hc        1 MOL      0.049035
    156 H74        -7.3170    2.5020    5.0450 hc        1 MOL      0.049035
    157 H75        -5.3480    1.0610    5.0180 hx        1 MOL      0.057818
    158 H76        -6.3420   -0.3880    4.9480 hx        1 MOL      0.057818
    159 H77        -7.2100    0.2920    7.2240 hn        1 MOL      0.282183
    160 H78        -5.6400   -0.0990    7.2390 hn        1 MOL      0.282183
    161 H79        -6.0850    1.4460    7.4620 hn        1 MOL      0.282183
    162 N14        -4.7750    1.7930   -0.1460 n         1 MOL      0.015855
    163 C49        -3.7920    2.4460   -1.0210 c3        1 MOL     -0.117774
    164 C50        -4.2920    2.5950   -2.4440 c         1 MOL      0.363445
    165 O22        -4.1100    3.6070   -3.1470 o         1 MOL     -0.516894
    166 C51        -2.5230    1.5370   -1.0160 c3        1 MOL      0.123139
    167 C52        -1.6650    2.1420    0.0940 c3        1 MOL     -0.190152
    168 C53        -0.4600    1.2150    0.2450 c         1 MOL      0.696692
    169 O23         0.5390    1.6550    0.7590 o         1 MOL     -0.756509
    170 O24        -0.4310   -0.0070    0.0660 o         1 MOL     -0.756509
    171 H80        -4.5330    0.9270    0.3120 hn        1 MOL     -0.090918
    172 H81        -3.6320    3.4410   -0.6120 h1        1 MOL      0.095490
    173 H82        -1.9790    1.5730   -1.9610 hc        1 MOL      0.040402
    174 H83        -2.7880    0.5020   -0.7940 hc        1 MOL      0.040402
    175 H84        -2.2990    2.1180    0.9780 hc        1 MOL      0.016900
    176 H85        -1.3650    3.1690   -0.1320 hc        1 MOL      0.016900
    177 N15        -5.1420    1.6020   -2.8510 n         1 MOL      0.020753
    178 C54        -5.6160    1.4100   -4.2230 c3        1 MOL     -0.357611
    179 H86        -4.8040    1.6150   -4.9200 h1        1 MOL      0.121786
    180 H87        -5.9520    0.3800   -4.3520 h1        1 MOL      0.121786
    181 H88        -6.4450    2.0900   -4.4210 h1        1 MOL      0.121786
    182 H89        -5.3270    0.8890   -2.1560 hn        1 MOL      0.063430
    183 Ca1         1.7180   -0.8110    1.2560 Ca        1 MOL      1.773042
    184 O25         0.0200   -0.1380    3.4860 oh        1 MOL     -0.819782
    185 H90        -0.8420    0.2290    3.6760 ho        1 MOL      0.383787
    186 H91         0.6370    0.4880    3.8530 ho        1 MOL      0.383787
    187 O26         0.5120   -3.0370    2.4420 oh        1 MOL     -0.819782
    188 H92        -0.0340   -3.2170    3.1990 ho        1 MOL      0.383787
    189 H93         1.1090   -3.7830    2.3950 ho        1 MOL      0.383787
@<TRIPOS>BOND
     1    1    2 1   
     2    1    4 1   
     3    1    5 1   
     4    1    6 1   
     5    2    3 2   
     6    2    7 1   
     7    7    8 1   
     8    7   15 1   
     9    8    9 1   
    10    8   11 1   
    11    8   16 1   
    12    9   10 2   
    13    9   19 1   
    14   11   12 1   
    15   11   17 1   
    16   11   18 1   
    17   12   13 1   
    18   12   14 1   
    19   19   20 1   
    20   19   28 1   
    21   20   21 1   
    22   20   23 1   
    23   20   29 1   
    24   21   22 2   
    25   21   41 1   
    26   23   24 1   
    27   23   30 1   
    28   23   31 1   
    29   24   25 1   
    30   24   32 1   
    31   24   33 1   
    32   25   26 1   
    33   25   34 1   
    34   25   35 1   
    35   26   27 1   
    36   26   36 1   
    37   26   37 1   
    38   27   38 1   
    39   27   39 1   
    40   27   40 1   
    41   41   42 1   
    42   41   49 1   
    43   42   43 1   
    44   42   45 1   
    45   42   50 1   
    46   43   44 2   
    47   43   53 1   
    48   45   46 1   
    49   45   51 1   
    50   45   52 1   
    51   46   47 1   
    52   46   48 1   
    53   53   54 1   
    54   53   57 1   
    55   54   55 1   
    56   54   58 1   
    57   54   59 1   
    58   55   56 2   
    59   55   60 1   
    60   60   61 1   
    61   60   68 1   
    62   61   62 1   
    63   61   64 1   
    64   61   69 1   
    65   62   63 2   
    66   62   72 1   
    67   64   65 1   
    68   64   70 1   
    69   64   71 1   
    70   65   66 1   
    71   65   67 1   
    72   72   73 1   
    73   72   76 1   
    74   73   74 1   
    75   73   77 1   
    76   73   78 1   
    77   74   75 2   
    78   74   79 1   
    79   79   80 1   
    80   79   86 1   
    81   80   81 1   
    82   80   83 1   
    83   80   87 1   
    84   81   82 2   
    85   81   93 1   
    86   83   84 1   
    87   83   85 1   
    88   83   88 1   
    89   84   90 1   
    90   84   91 1   
    91   84   92 1   
    92   85   89 1   
    93   93   94 1   
    94   93  101 1   
    95   94   95 1   
    96   94   97 1   
    97   94  102 1   
    98   95   96 2   
    99   95  112 1   
   100   97   98 1   
   101   97   99 1   
   102   97  103 1   
   103   98  100 1   
   104   98  104 1   
   105   98  105 1   
   106   99  106 1   
   107   99  107 1   
   108   99  108 1   
   109  100  109 1   
   110  100  110 1   
   111  100  111 1   
   112  112  113 1   
   113  112  119 1   
   114  113  114 1   
   115  113  116 1   
   116  113  120 1   
   117  114  115 2   
   118  114  126 1   
   119  116  117 1   
   120  116  118 1   
   121  116  121 1   
   122  117  123 1   
   123  117  124 1   
   124  117  125 1   
   125  118  122 1   
   126  126  127 1   
   127  126  133 1   
   128  127  128 1   
   129  127  130 1   
   130  127  134 1   
   131  128  129 2   
   132  128  140 1   
   133  130  131 1   
   134  130  132 1   
   135  130  135 1   
   136  131  137 1   
   137  131  138 1   
   138  131  139 1   
   139  132  136 1   
   140  140  141 1   
   141  140  149 1   
   142  141  142 1   
   143  141  144 1   
   144  141  150 1   
   145  142  143 2   
   146  142  162 1   
   147  144  145 1   
   148  144  151 1   
   149  144  152 1   
   150  145  146 1   
   151  145  153 1   
   152  145  154 1   
   153  146  147 1   
   154  146  155 1   
   155  146  156 1   
   156  147  148 1   
   157  147  157 1   
   158  147  158 1   
   159  148  159 1   
   160  148  160 1   
   161  148  161 1   
   162  162  163 1   
   163  162  171 1   
   164  163  164 1   
   165  163  166 1   
   166  163  172 1   
   167  164  165 2   
   168  164  177 1   
   169  166  167 1   
   170  166  173 1   
   171  166  174 1   
   172  167  168 1   
   173  167  175 1   
   174  167  176 1   
   175  168  169 1   
   176  168  170 1   
   177  177  178 1   
   178  177  182 1   
   179  178  179 1   
   180  178  180 1   
   181  178  181 1   
   182  184  185 1   
   183  184  186 1   
   184  187  188 1   
   185  187  189 1   
@<TRIPOS>SUBSTRUCTURE
     1 MOL         1 TEMP              0 ****  ****    0 ROOT
