@<TRIPOS>MOLECULE
MOL
  182   178     1     0     0
SMALL
resp


@<TRIPOS>ATOM
      1 C1          1.6160    2.6200    6.4440 c3        1 MOL     -0.260101
      2 C2          1.2520    2.3240    4.9540 c         1 MOL      0.681817
      3 O1          2.1720    2.0800    4.1440 o         1 MOL     -0.604566
      4 H1          0.8670    3.2850    6.8750 hc        1 MOL      0.068205
      5 H2          1.6380    1.6860    7.0050 hc        1 MOL      0.068205
      6 H3          2.5940    3.0960    6.4910 hc        1 MOL      0.068205
      7 N1         -0.0200    2.2130    4.6240 n         1 MOL     -0.529498
      8 C3         -0.4780    2.1010    3.2490 c3        1 MOL     -0.095373
      9 C4         -0.4330    3.4470    2.4520 c         1 MOL      0.597900
     10 O2         -1.0940    4.4500    2.7150 o         1 MOL     -0.543004
     11 C5         -1.8950    1.5850    3.1910 c3        1 MOL     -0.088583
     12 C6         -2.4140    1.2010    1.8150 c         1 MOL      0.723162
     13 O3         -1.6610    1.2280    0.8220 o         1 MOL     -0.758640
     14 O4         -3.6170    0.7670    1.8180 o         1 MOL     -0.758640
     15 H4         -0.6770    2.2850    5.3800 hn        1 MOL      0.328276
     16 H5          0.1540    1.3870    2.7210 h1        1 MOL      0.053038
     17 H6         -2.5820    2.3360    3.5870 hc        1 MOL      0.050835
     18 H7         -2.0460    0.7580    3.8900 hc        1 MOL      0.050835
     19 N2          0.3630    3.5300    1.4000 n         1 MOL     -0.226642
     20 C7          0.8400    4.8330    0.8110 c3        1 MOL     -0.274792
     21 C8         -0.3080    5.5960    0.1350 c         1 MOL      0.602236
     22 O5         -0.2590    6.8110    0.0550 o         1 MOL     -0.609987
     23 C9          2.0070    4.4980   -0.1110 c3        1 MOL      0.044541
     24 C10         2.7940    5.7050   -0.6290 c3        1 MOL     -0.125478
     25 C11         3.9040    5.2180   -1.5090 c3        1 MOL     -0.024107
     26 C12         4.8980    6.4040   -1.7690 c3        1 MOL      0.126879
     27 N3          6.2740    5.9130   -2.1470 n4        1 MOL     -0.463796
     28 H8          0.8310    2.6830    1.0900 hn        1 MOL      0.212124
     29 H9          1.2760    5.4330    1.6110 h1        1 MOL      0.142720
     30 H10         1.6170    3.8540   -0.9090 hc        1 MOL      0.066678
     31 H11         2.6520    3.8370    0.4720 hc        1 MOL      0.066678
     32 H12         3.2990    6.2900    0.1360 hc        1 MOL      0.065745
     33 H13         2.1430    6.3120   -1.2580 hc        1 MOL      0.065745
     34 H14         3.5930    4.7760   -2.4550 hc        1 MOL      0.027241
     35 H15         4.5050    4.4740   -0.9870 hc        1 MOL      0.027241
     36 H16         4.9800    7.0690   -0.9110 hx        1 MOL      0.065447
     37 H17         4.4940    7.0920   -2.5140 hx        1 MOL      0.065447
     38 H18         6.2590    5.1050   -2.7410 hn        1 MOL      0.353566
     39 H19         6.7710    6.6780   -2.5810 hn        1 MOL      0.353566
     40 H20         6.7750    5.5540   -1.3520 hn        1 MOL      0.353566
     41 N4         -1.2390    4.9150   -0.4390 n         1 MOL     -0.227780
     42 C13        -2.3380    5.4000   -1.3000 c3        1 MOL      0.136625
     43 C14        -3.6900    5.0260   -0.6380 c         1 MOL      0.347730
     44 O6         -4.7130    5.5050   -1.1220 o         1 MOL     -0.523640
     45 C15        -2.2870    5.0280   -2.7890 c3        1 MOL     -0.424383
     46 C16        -2.5910    3.5520   -3.0140 c         1 MOL      1.016009
     47 O7         -2.5510    2.7130   -2.0990 o         1 MOL     -0.774400
     48 O8         -2.7640    3.1460   -4.1620 o         1 MOL     -0.774400
     49 H21        -1.0690    3.9230   -0.3870 hn        1 MOL      0.090114
     50 H22        -2.3620    6.4940   -1.2830 h1        1 MOL      0.091652
     51 H23        -1.3260    5.2230   -3.2660 hc        1 MOL      0.102940
     52 H24        -3.1210    5.5190   -3.2900 hc        1 MOL      0.102940
     53 N5         -3.6330    4.2520    0.4260 n         1 MOL      0.007533
     54 C17        -4.7630    4.0080    1.3100 c3        1 MOL     -0.369084
     55 C18        -5.6600    2.9120    0.7990 c         1 MOL      0.587883
     56 O9         -6.7240    2.7110    1.4060 o         1 MOL     -0.567771
     57 H25        -2.7560    3.8710    0.7400 hn        1 MOL      0.023697
     58 H26        -5.3240    4.9390    1.4140 h1        1 MOL      0.170802
     59 H27        -4.3990    3.6630    2.2810 h1        1 MOL      0.170802
     60 N6         -5.3160    2.1640   -0.2820 n         1 MOL     -0.280175
     61 C19        -6.2640    1.3230   -1.0590 c3        1 MOL     -0.048230
     62 C20        -6.7180    0.0900   -0.2620 c         1 MOL      0.324558
     63 O10        -7.6800   -0.6120   -0.6540 o         1 MOL     -0.517244
     64 C21        -5.6110    0.9980   -2.3360 c3        1 MOL      0.049249
     65 C22        -4.8240   -0.3200   -2.1960 c         1 MOL      0.484952
     66 N7         -5.2240   -1.3290   -2.9600 n         1 MOL     -0.793305
     67 O11        -3.8440   -0.4900   -1.5650 o         1 MOL     -0.598415
     68 H28        -4.3540    2.1040   -0.5820 hn        1 MOL      0.152673
     69 H29        -7.0880    1.9620   -1.3740 h1        1 MOL      0.121269
     70 H30        -5.0000    1.7810   -2.7960 hc        1 MOL      0.028154
     71 H31        -6.3990    0.7710   -3.0650 hc        1 MOL      0.028154
     72 H32        -6.0960   -1.3250   -3.4790 hn        1 MOL      0.390980
     73 H33        -4.6360   -2.1330   -2.7590 hn        1 MOL      0.390980
     74 N8         -6.0260   -0.2990    0.8690 n         1 MOL     -0.025714
     75 C23        -6.3210   -1.5530    1.6920 c3        1 MOL     -0.495807
     76 C24        -5.2190   -2.6000    1.6810 c         1 MOL      0.750228
     77 O12        -5.2390   -3.5720    2.4320 o         1 MOL     -0.576298
     78 H34        -5.2510    0.2940    1.1090 hn        1 MOL      0.246048
     79 H35        -7.2690   -2.0410    1.4400 h1        1 MOL      0.191095
     80 H36        -6.4540   -1.1860    2.7080 h1        1 MOL      0.191095
     81 N9         -4.1220   -2.3660    0.9020 n         1 MOL     -0.508738
     82 C25        -3.0850   -3.3400    0.6420 c3        1 MOL     -0.019613
     83 C26        -1.6940   -2.6660    0.5400 c         1 MOL      0.585086
     84 O13        -1.5410   -1.7630   -0.2670 o         1 MOL     -0.571599
     85 C27        -3.4400   -4.0900   -0.6920 c3        1 MOL      0.093832
     86 C28        -4.6680   -4.8950   -0.5910 ca        1 MOL     -0.212061
     87 C29        -5.9270   -4.3060   -0.8220 ca        1 MOL      0.008932
     88 C30        -4.5680   -6.2770   -0.1740 ca        1 MOL      0.008932
     89 C31        -7.1060   -5.0740   -0.6410 ca        1 MOL     -0.355057
     90 C32        -5.7240   -7.0880   -0.1640 ca        1 MOL     -0.355057
     91 C33        -7.0020   -6.4520   -0.3160 ca        1 MOL      0.423104
     92 O14        -8.1810   -7.1590   -0.2380 oh        1 MOL     -0.493390
     93 H37        -4.0720   -1.4580    0.4500 hn        1 MOL      0.383258
     94 H38        -3.2160   -4.0510    1.4630 h1        1 MOL      0.092716
     95 H39        -2.6770   -4.7890   -1.0170 hc        1 MOL     -0.000258
     96 H40        -3.4820   -3.4200   -1.5510 hc        1 MOL     -0.000258
     97 H41        -6.0460   -3.2980   -1.1710 ha        1 MOL      0.090433
     98 H42        -3.6200   -6.7750   -0.0500 ha        1 MOL      0.090433
     99 H43        -8.0360   -4.6010   -0.9120 ha        1 MOL      0.163306
    100 H44        -5.6020   -8.1590   -0.0570 ha        1 MOL      0.163306
    101 H45        -8.0420   -8.1090   -0.1220 ho        1 MOL      0.354742
    102 N10        -0.7360   -3.1420    1.3020 n         1 MOL     -0.552974
    103 C34         0.6790   -2.7290    1.3480 c3        1 MOL      0.251239
    104 C35         1.4540   -3.6540    0.4580 c         1 MOL      0.420967
    105 O15         1.5480   -4.8380    0.6010 o         1 MOL     -0.537760
    106 C36         1.1820   -2.7390    2.7820 c3        1 MOL     -0.126924
    107 C37         0.4030   -1.5820    3.4910 c3        1 MOL      0.069648
    108 C38         2.7070   -2.4270    2.9750 c3        1 MOL     -0.024406
    109 C39         0.6910   -1.4970    4.9750 c3        1 MOL     -0.431461
    110 H46        -1.0580   -3.9250    1.8630 hn        1 MOL      0.300458
    111 H47         0.8070   -1.7100    0.9630 h1        1 MOL     -0.020480
    112 H48         0.9020   -3.7290    3.1210 hc        1 MOL      0.059479
    113 H49        -0.6610   -1.6810    3.2820 hc        1 MOL      0.061729
    114 H50         0.7330   -0.6180    3.1220 hc        1 MOL      0.061729
    115 H51         3.2900   -3.2340    2.5060 hc        1 MOL      0.015880
    116 H52         3.0270   -1.4640    2.5750 hc        1 MOL      0.015880
    117 H53         3.1090   -2.4140    3.9830 hc        1 MOL      0.015880
    118 H54         0.7650   -2.4700    5.4650 hc        1 MOL      0.108744
    119 H55         1.6470   -1.0110    5.1190 hc        1 MOL      0.108744
    120 H56        -0.0930   -0.9180    5.4860 hc        1 MOL      0.108744
    121 N11         2.0780   -2.9920   -0.5060 n         1 MOL     -0.083730
    122 C40         3.0380   -3.7110   -1.3560 c3        1 MOL     -0.065772
    123 C41         4.4570   -3.7450   -0.6930 c         1 MOL      0.407363
    124 O16         4.6950   -2.9430    0.2700 o         1 MOL     -0.384096
    125 C42         3.0160   -3.1300   -2.7560 c3        1 MOL      0.032946
    126 O17         3.4040   -1.8000   -2.7110 oh        1 MOL     -0.526432
    127 H57         1.9340   -2.0120   -0.6880 hn        1 MOL      0.064215
    128 H58         2.7120   -4.7430   -1.4950 h1        1 MOL      0.067230
    129 H59         2.0230   -3.2240   -3.1980 h1        1 MOL      0.050249
    130 H60         3.7610   -3.6340   -3.3700 h1        1 MOL      0.050249
    131 H61         2.6240   -1.3790   -2.3440 ho        1 MOL      0.359365
    132 N12         5.4530   -4.5360   -1.0940 n         1 MOL     -0.363761
    133 C43         6.8730   -4.6220   -0.5330 c3        1 MOL      0.103279
    134 C44         7.6650   -3.2820   -0.7180 c         1 MOL      0.392303
    135 O18         8.5040   -2.8730    0.1190 o         1 MOL     -0.484834
    136 C45         7.6340   -5.8430   -1.1110 c3        1 MOL     -0.317965
    137 H62         5.2530   -5.3000   -1.7250 hn        1 MOL      0.259826
    138 H63         6.8230   -4.8250    0.5350 h1        1 MOL      0.092791
    139 H64         8.6830   -5.8340   -0.8180 hc        1 MOL      0.107531
    140 H65         7.2040   -6.7610   -0.7160 hc        1 MOL      0.107531
    141 H66         7.6320   -5.7690   -2.1990 hc        1 MOL      0.107531
    142 N13         7.4480   -2.5730   -1.8380 n         1 MOL     -0.360632
    143 C46         7.9910   -1.2310   -2.0780 c3        1 MOL      0.171633
    144 C47         7.4170   -0.2510   -0.9950 c         1 MOL      0.277489
    145 O19         8.1480    0.6510   -0.5430 o         1 MOL     -0.501635
    146 C48         7.8350   -0.7180   -3.4260 c3        1 MOL     -0.279374
    147 H67         6.8300   -2.9180   -2.5510 hn        1 MOL      0.270408
    148 H68         9.0670   -1.2150   -1.8840 h1        1 MOL      0.082131
    149 H69         8.4160   -1.2920   -4.1540 hc        1 MOL      0.076292
    150 H70         6.7650   -0.6940   -3.6340 hc        1 MOL      0.076292
    151 H71         8.1390    0.3300   -3.4650 hc        1 MOL      0.076292
    152 N14         6.1380   -0.3280   -0.6790 n         1 MOL     -0.105118
    153 C49         5.5050    0.4680    0.3540 c3        1 MOL     -0.192090
    154 C50         6.0370    0.2330    1.7200 c         1 MOL      0.433691
    155 O20         6.2620    1.2040    2.4970 o         1 MOL     -0.531792
    156 C51         3.9890    0.1770    0.3530 c3        1 MOL      0.070070
    157 C52         3.1930    0.9480   -0.7930 c3        1 MOL      0.036881
    158 C53         1.7180    0.6110   -0.8000 c         1 MOL      0.488638
    159 O21         1.3600   -0.4250   -1.3230 o         1 MOL     -0.567286
    160 O22         0.9070    1.4410   -0.3820 o         1 MOL     -0.567286
    161 H72         5.6510   -1.1360   -1.0440 hn        1 MOL      0.162352
    162 H73         5.7140    1.5010    0.0830 h1        1 MOL      0.108420
    163 H74         3.5790    0.6690    1.2410 hc        1 MOL      0.084826
    164 H75         3.7510   -0.8830    0.2570 hc        1 MOL      0.084826
    165 H76         3.6220    0.6230   -1.7370 hc        1 MOL     -0.084372
    166 H77         3.3010    2.0130   -0.5880 hc        1 MOL     -0.084372
    167 N15         6.2860   -1.0710    1.9930 n         1 MOL     -0.044556
    168 C54         6.7360   -1.5650    3.3440 c3        1 MOL     -0.207622
    169 H78         7.6900   -2.0830    3.2420 h1        1 MOL      0.093940
    170 H79         6.8530   -0.7190    4.0210 h1        1 MOL      0.093940
    171 H80         5.9930   -2.2530    3.7460 h1        1 MOL      0.093940
    172 H81         5.8320   -1.7590    1.4060 hn        1 MOL      0.072572
    173 Ca1        -1.1950    0.4330   -1.6150 Ca        1 MOL      1.779588
    174 O23         0.1880    1.8000   -3.5630 oh        1 MOL     -0.863692
    175 H82         0.2240    2.5300   -4.1770 ho        1 MOL      0.415301
    176 H83         0.9070    1.2180   -3.8330 ho        1 MOL      0.415301
    177 O24        -2.3130    0.5420   -4.0270 oh        1 MOL     -0.863692
    178 H84        -2.5780    0.2740   -4.9090 ho        1 MOL      0.415301
    179 H85        -2.5290    1.4710   -3.9780 ho        1 MOL      0.415301
    180 O25        -0.4910   -1.8620   -3.0590 oh        1 MOL     -0.863692
    181 H86        -0.1710   -1.8280   -3.9570 ho        1 MOL      0.415301
    182 H87        -0.8940   -2.7280   -2.9770 ho        1 MOL      0.415301
@<TRIPOS>BOND
     1    1    2 1   
     2    1    4 1   
     3    1    5 1   
     4    1    6 1   
     5    2    3 2   
     6    2    7 1   
     7    7    8 1   
     8    7   15 1   
     9    8    9 1   
    10    8   11 1   
    11    8   16 1   
    12    9   10 2   
    13    9   19 1   
    14   11   12 1   
    15   11   17 1   
    16   11   18 1   
    17   12   13 1   
    18   12   14 1   
    19   19   20 1   
    20   19   28 1   
    21   20   21 1   
    22   20   23 1   
    23   20   29 1   
    24   21   22 2   
    25   21   41 1   
    26   23   24 1   
    27   23   30 1   
    28   23   31 1   
    29   24   25 1   
    30   24   32 1   
    31   24   33 1   
    32   25   26 1   
    33   25   34 1   
    34   25   35 1   
    35   26   27 1   
    36   26   36 1   
    37   26   37 1   
    38   27   38 1   
    39   27   39 1   
    40   27   40 1   
    41   41   42 1   
    42   41   49 1   
    43   42   43 1   
    44   42   45 1   
    45   42   50 1   
    46   43   44 2   
    47   43   53 1   
    48   45   46 1   
    49   45   51 1   
    50   45   52 1   
    51   46   47 1   
    52   46   48 1   
    53   53   54 1   
    54   53   57 1   
    55   54   55 1   
    56   54   58 1   
    57   54   59 1   
    58   55   56 2   
    59   55   60 1   
    60   60   61 1   
    61   60   68 1   
    62   61   62 1   
    63   61   64 1   
    64   61   69 1   
    65   62   63 2   
    66   62   74 1   
    67   64   65 1   
    68   64   70 1   
    69   64   71 1   
    70   65   66 1   
    71   65   67 2   
    72   66   72 1   
    73   66   73 1   
    74   74   75 1   
    75   74   78 1   
    76   75   76 1   
    77   75   79 1   
    78   75   80 1   
    79   76   77 2   
    80   76   81 1   
    81   81   82 1   
    82   81   93 1   
    83   82   83 1   
    84   82   85 1   
    85   82   94 1   
    86   83   84 2   
    87   83  102 1   
    88   85   86 1   
    89   85   95 1   
    90   85   96 1   
    91   86   87 ar  
    92   86   88 ar  
    93   87   89 ar  
    94   87   97 1   
    95   88   90 ar  
    96   88   98 1   
    97   89   91 ar  
    98   89   99 1   
    99   90   91 ar  
   100   90  100 1   
   101   91   92 1   
   102   92  101 1   
   103  102  103 1   
   104  102  110 1   
   105  103  104 1   
   106  103  106 1   
   107  103  111 1   
   108  104  105 2   
   109  104  121 1   
   110  106  107 1   
   111  106  108 1   
   112  106  112 1   
   113  107  109 1   
   114  107  113 1   
   115  107  114 1   
   116  108  115 1   
   117  108  116 1   
   118  108  117 1   
   119  109  118 1   
   120  109  119 1   
   121  109  120 1   
   122  121  122 1   
   123  121  127 1   
   124  122  123 1   
   125  122  125 1   
   126  122  128 1   
   127  123  124 2   
   128  123  132 1   
   129  125  126 1   
   130  125  129 1   
   131  125  130 1   
   132  126  131 1   
   133  132  133 1   
   134  132  137 1   
   135  133  134 1   
   136  133  136 1   
   137  133  138 1   
   138  134  135 2   
   139  134  142 1   
   140  136  139 1   
   141  136  140 1   
   142  136  141 1   
   143  142  143 1   
   144  142  147 1   
   145  143  144 1   
   146  143  146 1   
   147  143  148 1   
   148  144  145 2   
   149  144  152 1   
   150  146  149 1   
   151  146  150 1   
   152  146  151 1   
   153  152  153 1   
   154  152  161 1   
   155  153  154 1   
   156  153  156 1   
   157  153  162 1   
   158  154  155 2   
   159  154  167 1   
   160  156  157 1   
   161  156  163 1   
   162  156  164 1   
   163  157  158 1   
   164  157  165 1   
   165  157  166 1   
   166  158  159 1   
   167  158  160 1   
   168  167  168 1   
   169  167  172 1   
   170  168  169 1   
   171  168  170 1   
   172  168  171 1   
   173  174  175 1   
   174  174  176 1   
   175  177  178 1   
   176  177  179 1   
   177  180  181 1   
   178  180  182 1   
@<TRIPOS>SUBSTRUCTURE
     1 MOL         1 TEMP              0 ****  ****    0 ROOT
