@<TRIPOS>MOLECULE
MOL
  179   176     1     0     0
SMALL
resp


@<TRIPOS>ATOM
      1 C1          2.2860    3.3700    3.7790 c3        1 MOL     -0.395601
      2 C2          1.4000    2.9660    2.6460 c         1 MOL      0.588143
      3 O1          1.8100    2.9530    1.4870 o         1 MOL     -0.559615
      4 H1          2.9850    4.1340    3.4380 hc        1 MOL      0.105849
      5 H2          1.6790    3.7700    4.5910 hc        1 MOL      0.105849
      6 H3          2.8420    2.5020    4.1330 hc        1 MOL      0.105849
      7 N1          0.1360    2.7480    2.9090 n         1 MOL     -0.521509
      8 C3         -0.8690    2.5670    1.9210 c3        1 MOL      0.010948
      9 C4         -1.5070    3.9090    1.4670 c         1 MOL      0.612351
     10 O2         -2.6840    4.2300    1.6810 o         1 MOL     -0.473174
     11 C5         -1.9230    1.7150    2.5220 c3        1 MOL     -0.103675
     12 C6         -3.0850    1.3430    1.5650 c         1 MOL      0.571582
     13 O3         -4.2460    1.2750    1.9860 o         1 MOL     -0.580670
     14 O4         -2.8170    1.1320    0.3380 o         1 MOL     -0.580670
     15 H4         -0.1750    2.7600    3.8750 hn        1 MOL      0.342043
     16 H5         -0.5070    2.0330    1.0420 h1        1 MOL      0.023509
     17 H6         -2.3440    2.2030    3.3990 hc        1 MOL      0.018516
     18 H7         -1.4140    0.8020    2.8130 hc        1 MOL      0.018516
     19 N2         -0.6540    4.6720    0.8460 n         1 MOL     -0.545396
     20 C7         -0.9800    5.9790    0.3410 c3        1 MOL      0.054454
     21 C8         -2.1440    5.9890   -0.5910 c         1 MOL      0.317146
     22 O5         -2.9170    6.9780   -0.5740 o         1 MOL     -0.528919
     23 C9          0.2190    6.7080   -0.2730 c3        1 MOL     -0.328581
     24 C10         1.4360    6.7850    0.6160 c3        1 MOL      0.385698
     25 C11         2.4600    7.6480   -0.1770 c3        1 MOL     -0.080091
     26 C12         3.7620    7.6510    0.7210 c3        1 MOL     -0.189670
     27 N3          3.5170    8.1390    2.0940 n4        1 MOL     -0.122472
     28 H8          0.2810    4.3160    0.7170 hn        1 MOL      0.398857
     29 H9         -1.2870    6.5940    1.1850 h1        1 MOL      0.086918
     30 H10        -0.1930    7.6740   -0.5480 hc        1 MOL      0.107425
     31 H11         0.5040    6.1560   -1.1700 hc        1 MOL      0.107425
     32 H12         1.9280    5.8520    0.8480 hc        1 MOL     -0.080050
     33 H13         1.0510    7.2870    1.5110 hc        1 MOL     -0.080050
     34 H14         2.1230    8.6300   -0.4930 hc        1 MOL      0.064225
     35 H15         2.7130    7.1000   -1.0820 hc        1 MOL      0.064225
     36 H16         4.5290    8.2750    0.2650 hx        1 MOL      0.147216
     37 H17         4.0720    6.6070    0.8240 hx        1 MOL      0.147216
     38 H18         3.0600    7.4470    2.6680 hn        1 MOL      0.264786
     39 H19         4.3720    8.2930    2.6030 hn        1 MOL      0.264786
     40 H20         2.9920    8.9940    2.2160 hn        1 MOL      0.264786
     41 N4         -2.2780    4.9990   -1.4660 n         1 MOL     -0.111074
     42 C13        -3.4310    4.8550   -2.3650 c3        1 MOL     -0.040975
     43 C14        -4.7600    4.3830   -1.6670 c         1 MOL      0.353423
     44 O6         -5.8580    4.4810   -2.2660 o         1 MOL     -0.489915
     45 C15        -2.9110    3.8400   -3.4320 c3        1 MOL     -0.219094
     46 C16        -2.3350    2.5740   -2.7620 c         1 MOL      0.814601
     47 O7         -1.1430    2.5040   -2.3040 o         1 MOL     -0.741266
     48 O8         -2.9330    1.5160   -2.6780 o         1 MOL     -0.741266
     49 H21        -1.5310    4.3320   -1.3770 hn        1 MOL      0.131884
     50 H22        -3.5570    5.8620   -2.7480 h1        1 MOL      0.118945
     51 H23        -2.0830    4.3500   -3.9260 hc        1 MOL      0.058946
     52 H24        -3.6540    3.5120   -4.1480 hc        1 MOL      0.058946
     53 N5         -4.6750    3.8550   -0.3980 n         1 MOL      0.011948
     54 C17        -5.9270    3.5700    0.3290 c3        1 MOL     -0.180177
     55 C18        -6.5840    2.3520   -0.2120 c         1 MOL      0.570787
     56 O9         -7.7900    2.3890   -0.4900 o         1 MOL     -0.593184
     57 H25        -3.8000    3.9080    0.1060 hn        1 MOL      0.104706
     58 H26        -6.6180    4.4070    0.2240 h1        1 MOL      0.097414
     59 H27        -5.7470    3.4450    1.3950 h1        1 MOL      0.097414
     60 N6         -5.8690    1.2640   -0.4410 n         1 MOL     -0.126788
     61 C19        -6.4220   -0.0100   -0.9280 c3        1 MOL     -0.062330
     62 C20        -6.5820   -1.0920    0.2010 c         1 MOL      0.426065
     63 O10        -7.2640   -2.1240    0.0580 o         1 MOL     -0.558547
     64 C21        -5.7780   -0.3780   -2.2490 c3        1 MOL      0.037701
     65 C22        -4.6650   -1.3830   -2.0940 c         1 MOL      0.399006
     66 N7         -4.2250   -2.1010   -3.0680 n         1 MOL     -0.741848
     67 O11        -3.8960   -1.5270   -1.1300 o         1 MOL     -0.348291
     68 H28        -4.9370    1.2770   -0.0350 hn        1 MOL     -0.139343
     69 H29        -7.4590    0.1960   -1.1920 h1        1 MOL      0.115058
     70 H30        -5.3960    0.4820   -2.7970 hc        1 MOL      0.057370
     71 H31        -6.6200   -0.7460   -2.8440 hc        1 MOL      0.057370
     72 H32        -4.6140   -2.0800   -3.9990 hn        1 MOL      0.346171
     73 H33        -3.7170   -2.9480   -2.8420 hn        1 MOL      0.346171
     74 N8         -5.9740   -0.9750    1.3810 n         1 MOL     -0.241464
     75 C23        -6.0000   -2.0130    2.4240 c3        1 MOL     -0.131131
     76 C24        -4.7100   -2.9170    2.5260 c         1 MOL      0.475942
     77 O12        -4.4820   -3.6700    3.4720 o         1 MOL     -0.595738
     78 H34        -5.4260   -0.1480    1.5690 hn        1 MOL      0.257666
     79 H35        -6.9050   -2.6080    2.3400 h1        1 MOL      0.107349
     80 H36        -6.0700   -1.5470    3.4100 h1        1 MOL      0.107349
     81 N9         -3.7890   -2.8400    1.5950 n         1 MOL     -0.116229
     82 C25        -2.4950   -3.5950    1.5650 c3        1 MOL      0.287579
     83 C26        -1.3230   -2.6690    1.4270 c         1 MOL      0.205911
     84 O13        -1.4680   -1.5600    0.8730 o         1 MOL     -0.474550
     85 C27        -2.4990   -4.5990    0.3800 c3        1 MOL     -0.195182
     86 C28        -3.7020   -5.5300    0.2920 ca        1 MOL      0.236243
     87 C29        -3.6940   -6.8130    0.8400 ca        1 MOL     -0.323435
     88 C30        -4.7470   -5.1890   -0.6180 ca        1 MOL     -0.323435
     89 C31        -4.7690   -7.6840    0.6770 ca        1 MOL     -0.131464
     90 C32        -5.7640   -6.1160   -0.8540 ca        1 MOL     -0.131464
     91 C33        -5.8360   -7.3370   -0.1580 ca        1 MOL      0.222302
     92 O14        -6.9580   -8.0990   -0.2860 oh        1 MOL     -0.444771
     93 H37        -3.8840   -2.1860    0.8270 hn        1 MOL      0.052505
     94 H38        -2.2400   -4.1720    2.4660 h1        1 MOL      0.008633
     95 H39        -1.6200   -5.2170    0.5510 hc        1 MOL      0.040852
     96 H40        -2.2790   -4.0240   -0.5240 hc        1 MOL      0.040852
     97 H41        -2.8470   -7.0910    1.4350 ha        1 MOL      0.177938
     98 H42        -4.8480   -4.2280   -1.0890 ha        1 MOL      0.177938
     99 H43        -4.7370   -8.6760    1.0980 ha        1 MOL      0.124212
    100 H44        -6.5510   -5.8860   -1.5520 ha        1 MOL      0.124212
    101 H45        -7.4840   -7.5830   -0.9040 ho        1 MOL      0.342398
    102 N10        -0.1460   -3.2680    1.6880 n         1 MOL     -0.183490
    103 C34         1.1060   -2.6540    1.2480 c3        1 MOL     -0.231965
    104 C35         2.0550   -3.6060    0.5380 c         1 MOL      0.560399
    105 O15         2.0090   -4.8050    0.8230 o         1 MOL     -0.571758
    106 C36         1.8360   -1.7670    2.3100 c3        1 MOL      0.156840
    107 C37         2.1210   -2.6250    3.6120 c3        1 MOL     -0.145555
    108 C38         0.8820   -0.6720    2.8140 c3        1 MOL     -0.250638
    109 C39         3.0510   -1.9840    4.5940 c3        1 MOL     -0.165840
    110 H46        -0.1560   -4.1320    2.2140 hn        1 MOL      0.255017
    111 H47         0.8470   -1.9910    0.4240 h1        1 MOL     -0.019641
    112 H48         2.7800   -1.3120    2.0120 hc        1 MOL      0.001269
    113 H49         2.6250   -3.4530    3.1210 hc        1 MOL      0.071982
    114 H50         1.2320   -2.9510    4.1520 hc        1 MOL      0.071982
    115 H51         1.0800   -0.1330    3.7490 hc        1 MOL      0.094936
    116 H52         0.7340    0.0660    2.0190 hc        1 MOL      0.094936
    117 H53        -0.1110   -1.0790    2.9690 hc        1 MOL      0.094936
    118 H54         3.9840   -1.7770    4.0720 hc        1 MOL      0.042740
    119 H55         2.7780   -0.9960    4.9730 hc        1 MOL      0.042740
    120 H56         3.2610   -2.7370    5.3530 hc        1 MOL      0.042740
    121 N11         2.9280   -3.1560   -0.3250 n         1 MOL     -0.332351
    122 C40         4.0750   -3.9340   -0.8560 c3        1 MOL      0.034172
    123 C41         5.3350   -3.3610   -0.3100 c         1 MOL      0.610862
    124 O16         5.3080   -2.3150    0.3030 o         1 MOL     -0.515519
    125 C42         4.0540   -3.7870   -2.3880 c3        1 MOL     -0.306655
    126 O17         4.7400   -2.6790   -2.9280 oh        1 MOL     -0.480103
    127 H57         2.8210   -2.2200   -0.6820 hn        1 MOL      0.396727
    128 H58         3.9550   -4.9790   -0.6010 h1        1 MOL      0.068430
    129 H59         3.0450   -3.8950   -2.7890 h1        1 MOL      0.148777
    130 H60         4.7340   -4.5430   -2.7860 h1        1 MOL      0.148777
    131 H61         4.4750   -2.6530   -3.8510 ho        1 MOL      0.396509
    132 N12         6.4180   -3.9800   -0.5620 n         1 MOL     -0.505901
    133 C43         7.7800   -3.6360   -0.1040 c3        1 MOL      0.118876
    134 C44         8.1200   -2.2250   -0.5450 c         1 MOL      0.582647
    135 O18         8.5880   -1.4790    0.2680 o         1 MOL     -0.556918
    136 C45         8.8040   -4.6090   -0.6190 c3        1 MOL     -0.205234
    137 H62         6.3280   -4.7870   -1.1500 hn        1 MOL      0.293258
    138 H63         7.8430   -3.6580    0.9850 h1        1 MOL      0.081561
    139 H64         9.3500   -4.2280   -1.4720 hc        1 MOL      0.066925
    140 H65         9.5550   -4.7860    0.1490 hc        1 MOL      0.066925
    141 H66         8.4030   -5.6120   -0.7950 hc        1 MOL      0.066925
    142 N13         7.9590   -1.8820   -1.7840 n         1 MOL     -0.384826
    143 C46         8.2110   -0.5630   -2.3110 c3        1 MOL      0.173705
    144 C47         7.3170    0.5300   -1.6120 c         1 MOL      0.283607
    145 O19         7.6810    1.7100   -1.5610 o         1 MOL     -0.508099
    146 C48         7.9220   -0.5750   -3.8340 c3        1 MOL     -0.316979
    147 H67         7.2560   -2.3980   -2.3000 hn        1 MOL      0.220990
    148 H68         9.2360   -0.2400   -2.1200 h1        1 MOL      0.084553
    149 H69         8.7810   -0.9980   -4.3530 hc        1 MOL      0.087118
    150 H70         7.0770   -1.2520   -3.9480 hc        1 MOL      0.087118
    151 H71         7.5620    0.4100   -4.1470 hc        1 MOL      0.087118
    152 N14         6.1110    0.1730   -1.1560 n         1 MOL      0.013547
    153 C49         5.2590    0.9930   -0.2390 c3        1 MOL     -0.347865
    154 C50         5.9140    1.1710    1.1660 c         1 MOL      0.561486
    155 O20         5.7990    2.2440    1.7420 o         1 MOL     -0.565149
    156 C51         3.8150    0.5590   -0.1950 c3        1 MOL      0.158813
    157 C52         3.1480    0.6770   -1.5450 c3        1 MOL      0.031989
    158 C53         1.8390   -0.0270   -1.4270 c         1 MOL      0.742463
    159 O21         1.6700   -1.1760   -1.9170 o         1 MOL     -0.775366
    160 O22         0.8970    0.4890   -0.8110 o         1 MOL     -0.775366
    161 H72         5.9560   -0.8300   -1.2030 hn        1 MOL      0.068031
    162 H73         5.3390    1.9760   -0.6940 h1        1 MOL      0.139161
    163 H74         3.2580    1.1970    0.5010 hc        1 MOL      0.054976
    164 H75         3.7820   -0.4370    0.2510 hc        1 MOL      0.054976
    165 H76         3.7280    0.1800   -2.3300 hc        1 MOL     -0.037142
    166 H77         3.0280    1.7390   -1.7760 hc        1 MOL     -0.037142
    167 N15         6.5820    0.1140    1.7010 n         1 MOL     -0.147113
    168 C54         7.3060    0.2250    2.9790 c3        1 MOL     -0.327602
    169 H78         7.9920    1.0710    2.9340 h1        1 MOL      0.122532
    170 H79         6.5920    0.3790    3.7880 h1        1 MOL      0.122532
    171 H80         7.8690   -0.6910    3.1590 h1        1 MOL      0.122532
    172 H81         6.6580   -0.7560    1.1950 hn        1 MOL      0.170646
    173 Ca1        -1.5710   -0.1650   -1.3540 Ca        1 MOL      1.748437
    174 O23        -0.4980   -2.4680   -1.8470 oh        1 MOL     -0.870564
    175 H82        -0.4070   -3.4170   -1.9670 ho        1 MOL      0.422026
    176 H83         0.4020   -2.1360   -1.8430 ho        1 MOL      0.422026
    177 O24        -0.4830   -0.1210   -3.9500 oh        1 MOL     -0.870564
    178 H84         0.1740   -0.7770   -4.1670 ho        1 MOL      0.422026
    179 H85        -0.2510    0.6400   -4.4930 ho        1 MOL      0.422026
@<TRIPOS>BOND
     1    1    2 1   
     2    1    4 1   
     3    1    5 1   
     4    1    6 1   
     5    2    3 2   
     6    2    7 1   
     7    7    8 1   
     8    7   15 1   
     9    8    9 1   
    10    8   11 1   
    11    8   16 1   
    12    9   10 2   
    13    9   19 1   
    14   11   12 1   
    15   11   17 1   
    16   11   18 1   
    17   12   13 1   
    18   12   14 1   
    19   19   20 1   
    20   19   28 1   
    21   20   21 1   
    22   20   23 1   
    23   20   29 1   
    24   21   22 2   
    25   21   41 1   
    26   23   24 1   
    27   23   30 1   
    28   23   31 1   
    29   24   25 1   
    30   24   32 1   
    31   24   33 1   
    32   25   26 1   
    33   25   34 1   
    34   25   35 1   
    35   26   27 1   
    36   26   36 1   
    37   26   37 1   
    38   27   38 1   
    39   27   39 1   
    40   27   40 1   
    41   41   42 1   
    42   41   49 1   
    43   42   43 1   
    44   42   45 1   
    45   42   50 1   
    46   43   44 2   
    47   43   53 1   
    48   45   46 1   
    49   45   51 1   
    50   45   52 1   
    51   46   47 1   
    52   46   48 1   
    53   53   54 1   
    54   53   57 1   
    55   54   55 1   
    56   54   58 1   
    57   54   59 1   
    58   55   56 2   
    59   55   60 1   
    60   60   61 1   
    61   60   68 1   
    62   61   62 1   
    63   61   64 1   
    64   61   69 1   
    65   62   63 2   
    66   62   74 1   
    67   64   65 1   
    68   64   70 1   
    69   64   71 1   
    70   65   66 1   
    71   65   67 2   
    72   66   72 1   
    73   66   73 1   
    74   74   75 1   
    75   74   78 1   
    76   75   76 1   
    77   75   79 1   
    78   75   80 1   
    79   76   77 2   
    80   76   81 1   
    81   81   82 1   
    82   81   93 1   
    83   82   83 1   
    84   82   85 1   
    85   82   94 1   
    86   83   84 2   
    87   83  102 1   
    88   85   86 1   
    89   85   95 1   
    90   85   96 1   
    91   86   87 ar  
    92   86   88 ar  
    93   87   89 ar  
    94   87   97 1   
    95   88   90 ar  
    96   88   98 1   
    97   89   91 ar  
    98   89   99 1   
    99   90   91 ar  
   100   90  100 1   
   101   91   92 1   
   102   92  101 1   
   103  102  103 1   
   104  102  110 1   
   105  103  104 1   
   106  103  106 1   
   107  103  111 1   
   108  104  105 2   
   109  104  121 1   
   110  106  107 1   
   111  106  108 1   
   112  106  112 1   
   113  107  109 1   
   114  107  113 1   
   115  107  114 1   
   116  108  115 1   
   117  108  116 1   
   118  108  117 1   
   119  109  118 1   
   120  109  119 1   
   121  109  120 1   
   122  121  122 1   
   123  121  127 1   
   124  122  123 1   
   125  122  125 1   
   126  122  128 1   
   127  123  124 2   
   128  123  132 1   
   129  125  126 1   
   130  125  129 1   
   131  125  130 1   
   132  126  131 1   
   133  132  133 1   
   134  132  137 1   
   135  133  134 1   
   136  133  136 1   
   137  133  138 1   
   138  134  135 2   
   139  134  142 1   
   140  136  139 1   
   141  136  140 1   
   142  136  141 1   
   143  142  143 1   
   144  142  147 1   
   145  143  144 1   
   146  143  146 1   
   147  143  148 1   
   148  144  145 2   
   149  144  152 1   
   150  146  149 1   
   151  146  150 1   
   152  146  151 1   
   153  152  153 1   
   154  152  161 1   
   155  153  154 1   
   156  153  156 1   
   157  153  162 1   
   158  154  155 2   
   159  154  167 1   
   160  156  157 1   
   161  156  163 1   
   162  156  164 1   
   163  157  158 1   
   164  157  165 1   
   165  157  166 1   
   166  158  159 1   
   167  158  160 1   
   168  167  168 1   
   169  167  172 1   
   170  168  169 1   
   171  168  170 1   
   172  168  171 1   
   173  174  175 1   
   174  174  176 1   
   175  177  178 1   
   176  177  179 1   
@<TRIPOS>SUBSTRUCTURE
     1 MOL         1 TEMP              0 ****  ****    0 ROOT
