@<TRIPOS>MOLECULE
MOL
  175   173     1     0     0
SMALL
resp


@<TRIPOS>ATOM
      1 C1         -1.3890    4.2440    5.7430 c3        1 MOL     -0.353404
      2 C2         -1.4200    3.7910    4.3090 c         1 MOL      0.759491
      3 O1         -0.4570    4.0710    3.5580 o         1 MOL     -0.590652
      4 H1         -2.1910    3.7550    6.2950 hc        1 MOL      0.080104
      5 H2         -0.4290    3.9800    6.1880 hc        1 MOL      0.080104
      6 H3         -1.5260    5.3240    5.7860 hc        1 MOL      0.080104
      7 N1         -2.5340    3.1680    3.8540 n         1 MOL     -0.660500
      8 C3         -2.7960    2.6330    2.4760 c3        1 MOL      0.201486
      9 C4         -2.9960    3.8390    1.4870 c         1 MOL      0.645274
     10 O2         -3.8050    4.7000    1.8680 o         1 MOL     -0.590380
     11 C5         -4.1440    1.8420    2.5250 c3        1 MOL     -0.134711
     12 C6         -4.4080    1.0610    1.2180 c         1 MOL      0.937721
     13 O3         -5.3840    0.3500    1.2090 o         1 MOL     -0.786582
     14 O4         -3.6170    1.1140    0.2780 o         1 MOL     -0.786582
     15 H4         -3.2070    2.9910    4.5830 hn        1 MOL      0.321062
     16 H5         -1.9940    1.9770    2.1500 h1        1 MOL     -0.027734
     17 H6         -4.9390    2.5700    2.6810 hc        1 MOL      0.006608
     18 H7         -4.1360    1.1030    3.3290 hc        1 MOL      0.006608
     19 N2         -2.3470    3.9280    0.3130 n         1 MOL     -0.486768
     20 C7         -2.4050    5.0290   -0.6240 c3        1 MOL      0.340530
     21 C8         -3.6660    4.8860   -1.4970 c         1 MOL      0.356925
     22 O5         -4.1950    5.8780   -1.9790 o         1 MOL     -0.591908
     23 C9         -1.1780    4.9450   -1.5630 c3        1 MOL     -0.467065
     24 H8         -1.8050    3.1370    0.0040 hn        1 MOL      0.235889
     25 H9         -2.5500    5.9370   -0.0340 h1        1 MOL      0.011475
     26 H10        -1.1700    3.9130   -1.9180 hc        1 MOL      0.132156
     27 H11        -1.2990    5.8120   -2.2250 hc        1 MOL      0.132156
     28 H12        -0.3480    5.1400   -0.8790 hc        1 MOL      0.132156
     29 N3         -4.0860    3.6750   -1.7960 n         1 MOL      0.061357
     30 C10        -5.1420    3.3600   -2.8480 c3        1 MOL      0.032580
     31 C11        -6.4270    2.7110   -2.3550 c         1 MOL      0.386877
     32 O6         -7.4200    2.5780   -3.0650 o         1 MOL     -0.519306
     33 C12        -4.5510    2.3970   -3.9490 c3        1 MOL     -0.220776
     34 C13        -3.7520    1.2620   -3.3910 c         1 MOL      0.768269
     35 O7         -2.5370    1.4010   -3.0480 o         1 MOL     -0.720995
     36 O8         -4.3550    0.2140   -3.0940 o         1 MOL     -0.720995
     37 H13        -3.6620    2.9350   -1.2540 hn        1 MOL     -0.142249
     38 H14        -5.3970    4.2530   -3.4250 h1        1 MOL      0.113266
     39 H15        -3.8880    3.0520   -4.5140 hc        1 MOL      0.050733
     40 H16        -5.3860    2.0330   -4.5420 hc        1 MOL      0.050733
     41 N4         -6.5000    2.2280   -1.0710 n         1 MOL     -0.325015
     42 C14        -7.6900    1.6390   -0.4520 c3        1 MOL      0.037714
     43 C15        -7.8680    0.1250   -0.5440 c         1 MOL      0.441960
     44 O9         -8.9270   -0.3340   -0.1140 o         1 MOL     -0.582207
     45 H17        -5.6200    2.1630   -0.5730 hn        1 MOL      0.183540
     46 H18        -8.6260    2.1480   -0.7030 h1        1 MOL      0.065792
     47 H19        -7.6800    1.7770    0.6320 h1        1 MOL      0.065792
     48 N5         -6.8740   -0.6470   -1.0010 n         1 MOL     -0.102816
     49 C16        -7.0250   -2.1080   -1.2280 c3        1 MOL     -0.329424
     50 C17        -6.9390   -3.0060   -0.0090 c         1 MOL      0.591405
     51 O10        -7.1880   -4.2130   -0.0870 o         1 MOL     -0.579692
     52 C18        -6.0620   -2.4850   -2.4010 c3        1 MOL     -0.068723
     53 C19        -4.7010   -2.9250   -1.9500 c         1 MOL      0.628480
     54 N6         -4.4200   -4.2190   -2.1120 n         1 MOL     -0.853367
     55 O11        -4.0360   -2.1820   -1.2660 o         1 MOL     -0.612548
     56 H20        -6.0090   -0.2680   -1.3730 hn        1 MOL      0.215679
     57 H21        -8.0190   -2.3200   -1.6230 h1        1 MOL      0.164088
     58 H22        -5.9590   -1.7380   -3.1790 hc        1 MOL      0.064797
     59 H23        -6.4540   -3.3290   -2.9720 hc        1 MOL      0.064797
     60 H24        -5.1200   -4.8290   -2.5090 hn        1 MOL      0.395815
     61 H25        -3.5650   -4.5420   -1.6560 hn        1 MOL      0.395815
     62 N7         -6.5630   -2.4600    1.1690 n         1 MOL     -0.279056
     63 C20        -6.2870   -3.1390    2.4160 c3        1 MOL     -0.193644
     64 C21        -4.9150   -3.7170    2.6010 c         1 MOL      0.553767
     65 O12        -4.7920   -4.3260    3.6670 o         1 MOL     -0.594282
     66 H26        -6.2340   -1.5090    1.0510 hn        1 MOL      0.291404
     67 H27        -6.9960   -3.9040    2.7130 h1        1 MOL      0.116547
     68 H28        -6.3490   -2.3480    3.1570 h1        1 MOL      0.116547
     69 N8         -3.9340   -3.4280    1.7820 n         1 MOL     -0.170206
     70 C22        -2.5210   -3.6880    2.0640 c3        1 MOL     -0.035437
     71 C23        -1.5710   -2.5090    1.7550 c         1 MOL      0.502902
     72 O13        -2.0390   -1.6130    1.0420 o         1 MOL     -0.510093
     73 C24        -2.0610   -4.9290    1.2680 c3        1 MOL      0.339275
     74 C25        -2.7750   -6.3200    1.6830 c3        1 MOL     -0.309334
     75 O14        -2.2180   -4.6510   -0.0920 oh        1 MOL     -0.674679
     76 H29        -4.1390   -2.8440    0.9870 hn        1 MOL      0.155413
     77 H30        -2.4140   -3.9670    3.1140 h1        1 MOL      0.070624
     78 H31        -1.0120   -5.1490    1.4690 h1        1 MOL      0.013387
     79 H32        -2.2710   -5.4990   -0.5540 ho        1 MOL      0.409540
     80 H33        -2.2870   -6.4820    2.6480 hc        1 MOL      0.082316
     81 H34        -3.8480   -6.2790    1.8490 hc        1 MOL      0.082316
     82 H35        -2.4520   -7.1460    1.0450 hc        1 MOL      0.082316
     83 N9         -0.3380   -2.5250    2.3010 n         1 MOL     -0.414160
     84 C26         0.7610   -1.6450    1.9150 c3        1 MOL     -0.003987
     85 C27         1.8940   -2.5110    1.2950 c         1 MOL      0.558850
     86 O15         2.2730   -3.5370    1.8060 o         1 MOL     -0.556844
     87 C28         1.1440   -0.7360    3.0900 c3        1 MOL      0.286908
     88 C29         1.7330   -1.3140    4.4100 c3        1 MOL     -0.191988
     89 C30         0.0300    0.2830    3.4510 c3        1 MOL     -0.321872
     90 C31         1.9420   -0.2160    5.4890 c3        1 MOL      0.022196
     91 H36         0.0240   -3.2870    2.8620 hn        1 MOL      0.261242
     92 H37         0.3310   -0.9590    1.1780 h1        1 MOL     -0.072034
     93 H38         2.0160   -0.1420    2.8150 hc        1 MOL     -0.055463
     94 H39         2.6460   -1.8740    4.1930 hc        1 MOL      0.032012
     95 H40         0.9600   -1.9950    4.7630 hc        1 MOL      0.032012
     96 H41        -0.8150   -0.2180    3.9290 hc        1 MOL      0.086978
     97 H42         0.3170    1.0100    4.2130 hc        1 MOL      0.086978
     98 H43        -0.2640    0.7420    2.5120 hc        1 MOL      0.086978
     99 H44         1.0360    0.0650    6.0240 hc        1 MOL      0.002624
    100 H45         2.5480   -0.5220    6.3400 hc        1 MOL      0.002624
    101 H46         2.3440    0.6990    5.0560 hc        1 MOL      0.002624
    102 N10         2.3540   -2.0640    0.0880 n         1 MOL     -0.511915
    103 C32         3.5140   -2.5030   -0.7200 c3        1 MOL      0.234234
    104 C33         4.7460   -1.7010   -0.2900 c         1 MOL      0.474000
    105 O16         4.5770   -0.8340    0.5920 o         1 MOL     -0.436949
    106 C34         3.2270   -2.1940   -2.2560 c3        1 MOL     -0.329634
    107 C35         4.1190   -2.9280   -3.2450 c         1 MOL      0.712269
    108 O17         5.1080   -3.5220   -2.8200 o         1 MOL     -0.696304
    109 O18         3.7950   -2.9590   -4.4320 o         1 MOL     -0.696304
    110 H47         1.8950   -1.2310   -0.2380 hn        1 MOL      0.341037
    111 H48         3.8060   -3.5470   -0.6330 h1        1 MOL      0.056853
    112 H49         3.2180   -1.1080   -2.4250 hc        1 MOL      0.081899
    113 H50         2.1660   -2.4340   -2.3550 hc        1 MOL      0.081899
    114 N11         5.9790   -1.9440   -0.7780 n         1 MOL     -0.720140
    115 C36         7.2230   -1.2880   -0.2900 c3        1 MOL      0.565846
    116 C37         7.1960    0.2530   -0.5520 c         1 MOL      0.148733
    117 O19         7.4630    0.8930    0.4370 o         1 MOL     -0.454955
    118 C38         8.3830   -2.0680   -0.8400 c3        1 MOL     -0.365661
    119 C39         9.6600   -1.4350   -0.2750 ca        1 MOL      0.224229
    120 C40         9.8840   -1.2580    1.0910 ca        1 MOL     -0.249034
    121 C41        10.7170   -1.1670   -1.1600 ca        1 MOL     -0.249034
    122 C42        11.1870   -0.8920    1.5250 ca        1 MOL     -0.013547
    123 C43        11.9100   -0.7230   -0.7410 ca        1 MOL     -0.013547
    124 C44        12.2360   -0.6450    0.6510 ca        1 MOL     -0.231631
    125 H51         6.1060   -2.6130   -1.5270 hn        1 MOL      0.318655
    126 H52         7.2680   -1.3410    0.8000 h1        1 MOL      0.013289
    127 H53         8.3680   -2.1060   -1.9260 hc        1 MOL      0.108790
    128 H54         8.3300   -3.0990   -0.4930 hc        1 MOL      0.108790
    129 H55         9.1170   -1.4890    1.8290 ha        1 MOL      0.120051
    130 H56        10.5200   -1.1980   -2.2170 ha        1 MOL      0.120051
    131 H57        11.4380   -0.8600    2.5740 ha        1 MOL      0.076635
    132 H58        12.7670   -0.5080   -1.3690 ha        1 MOL      0.076635
    133 H59        13.2070   -0.3130    0.9910 ha        1 MOL      0.128872
    134 N12         6.6040    0.7780   -1.6590 n         1 MOL      0.050702
    135 C45         6.5700    2.2270   -1.9200 c3        1 MOL      0.042802
    136 C46         5.6290    2.9630   -0.9920 c         1 MOL      0.232903
    137 O20         5.9440    4.0650   -0.5430 o         1 MOL     -0.524744
    138 C47         6.2110    2.4880   -3.4340 c3        1 MOL     -0.051659
    139 C48         6.4130    1.0450   -4.0070 c3        1 MOL     -0.099185
    140 C49         6.2920    0.0680   -2.8450 c3        1 MOL     -0.008048
    141 H60         7.5840    2.5620   -1.7390 h1        1 MOL      0.058995
    142 H61         5.1850    2.8490   -3.5230 hc        1 MOL      0.042134
    143 H62         6.9010    3.2110   -3.8490 hc        1 MOL      0.042134
    144 H63         5.6720    0.9150   -4.7870 hc        1 MOL      0.041678
    145 H64         7.4120    1.0690   -4.4360 hc        1 MOL      0.041678
    146 H65         5.2960   -0.3430   -2.6810 h1        1 MOL      0.040486
    147 H66         7.0520   -0.7060   -2.9940 h1        1 MOL      0.040486
    148 N13         4.6370    2.3410   -0.4480 n         1 MOL     -0.030826
    149 C50         3.6090    2.7630    0.5360 c3        1 MOL     -0.170680
    150 C51         4.2730    2.7370    1.9180 c         1 MOL      0.524560
    151 O21         4.2310    3.6730    2.6900 o         1 MOL     -0.560431
    152 C52         2.3210    1.8800    0.4290 c3        1 MOL      0.072540
    153 C53         1.6260    1.9940   -0.9390 c3        1 MOL     -0.198434
    154 C54         0.3630    1.1790   -1.0360 c         1 MOL      0.842772
    155 O22         0.3010    0.2660   -1.8830 o         1 MOL     -0.758209
    156 O23        -0.7180    1.3390   -0.3850 o         1 MOL     -0.758209
    157 H67         4.5900    1.3690   -0.7290 hn        1 MOL      0.157006
    158 H68         3.3860    3.8110    0.3330 h1        1 MOL      0.114542
    159 H69         1.6370    2.0690    1.2600 hc        1 MOL      0.040021
    160 H70         2.5290    0.8200    0.5910 hc        1 MOL      0.040021
    161 H71         2.3860    1.6980   -1.6700 hc        1 MOL      0.029577
    162 H72         1.3220    3.0330   -1.0440 hc        1 MOL      0.029577
    163 N14         4.8350    1.5870    2.3430 n         1 MOL     -0.074918
    164 C55         5.7500    1.3650    3.4910 c3        1 MOL     -0.225036
    165 H73         6.7810    1.5070    3.1660 h1        1 MOL      0.087593
    166 H74         5.5190    2.0760    4.2830 h1        1 MOL      0.087593
    167 H75         5.6240    0.3490    3.8650 h1        1 MOL      0.087593
    168 H76         4.6150    0.7940    1.7560 hn        1 MOL      0.078600
    169 Ca1        -2.2280   -0.3850   -1.3000 Ca        1 MOL      1.773888
    170 O24        -0.9380   -2.6780   -1.4060 oh        1 MOL     -0.798333
    171 H77        -1.3890   -3.2740   -0.8130 ho        1 MOL      0.388203
    172 H78        -0.1590   -3.1630   -1.6800 ho        1 MOL      0.388203
    173 O25        -1.9400   -1.5980   -3.8270 oh        1 MOL     -0.798333
    174 H79        -2.4020   -1.5950   -4.6690 ho        1 MOL      0.388203
    175 H80        -1.3090   -2.3180   -3.9070 ho        1 MOL      0.388203
@<TRIPOS>BOND
     1    1    2 1   
     2    1    4 1   
     3    1    5 1   
     4    1    6 1   
     5    2    3 2   
     6    2    7 1   
     7    7    8 1   
     8    7   15 1   
     9    8    9 1   
    10    8   11 1   
    11    8   16 1   
    12    9   10 2   
    13    9   19 1   
    14   11   12 1   
    15   11   17 1   
    16   11   18 1   
    17   12   13 1   
    18   12   14 1   
    19   19   20 1   
    20   19   24 1   
    21   20   21 1   
    22   20   23 1   
    23   20   25 1   
    24   21   22 2   
    25   21   29 1   
    26   23   26 1   
    27   23   27 1   
    28   23   28 1   
    29   29   30 1   
    30   29   37 1   
    31   30   31 1   
    32   30   33 1   
    33   30   38 1   
    34   31   32 2   
    35   31   41 1   
    36   33   34 1   
    37   33   39 1   
    38   33   40 1   
    39   34   35 1   
    40   34   36 1   
    41   41   42 1   
    42   41   45 1   
    43   42   43 1   
    44   42   46 1   
    45   42   47 1   
    46   43   44 2   
    47   43   48 1   
    48   48   49 1   
    49   48   56 1   
    50   49   50 1   
    51   49   52 1   
    52   49   57 1   
    53   50   51 2   
    54   50   62 1   
    55   52   53 1   
    56   52   58 1   
    57   52   59 1   
    58   53   54 1   
    59   53   55 2   
    60   54   60 1   
    61   54   61 1   
    62   62   63 1   
    63   62   66 1   
    64   63   64 1   
    65   63   67 1   
    66   63   68 1   
    67   64   65 2   
    68   64   69 1   
    69   69   70 1   
    70   69   76 1   
    71   70   71 1   
    72   70   73 1   
    73   70   77 1   
    74   71   72 2   
    75   71   83 1   
    76   73   74 1   
    77   73   75 1   
    78   73   78 1   
    79   74   80 1   
    80   74   81 1   
    81   74   82 1   
    82   75   79 1   
    83   83   84 1   
    84   83   91 1   
    85   84   85 1   
    86   84   87 1   
    87   84   92 1   
    88   85   86 2   
    89   85  102 1   
    90   87   88 1   
    91   87   89 1   
    92   87   93 1   
    93   88   90 1   
    94   88   94 1   
    95   88   95 1   
    96   89   96 1   
    97   89   97 1   
    98   89   98 1   
    99   90   99 1   
   100   90  100 1   
   101   90  101 1   
   102  102  103 1   
   103  102  110 1   
   104  103  104 1   
   105  103  106 1   
   106  103  111 1   
   107  104  105 2   
   108  104  114 1   
   109  106  107 1   
   110  106  112 1   
   111  106  113 1   
   112  107  108 1   
   113  107  109 1   
   114  114  115 1   
   115  114  125 1   
   116  115  116 1   
   117  115  118 1   
   118  115  126 1   
   119  116  117 2   
   120  116  134 1   
   121  118  119 1   
   122  118  127 1   
   123  118  128 1   
   124  119  120 ar  
   125  119  121 ar  
   126  120  122 ar  
   127  120  129 1   
   128  121  123 ar  
   129  121  130 1   
   130  122  124 ar  
   131  122  131 1   
   132  123  124 ar  
   133  123  132 1   
   134  124  133 1   
   135  134  135 1   
   136  134  140 1   
   137  135  136 1   
   138  135  138 1   
   139  135  141 1   
   140  136  137 2   
   141  136  148 1   
   142  138  139 1   
   143  138  142 1   
   144  138  143 1   
   145  139  140 1   
   146  139  144 1   
   147  139  145 1   
   148  140  146 1   
   149  140  147 1   
   150  148  149 1   
   151  148  157 1   
   152  149  150 1   
   153  149  152 1   
   154  149  158 1   
   155  150  151 2   
   156  150  163 1   
   157  152  153 1   
   158  152  159 1   
   159  152  160 1   
   160  153  154 1   
   161  153  161 1   
   162  153  162 1   
   163  154  155 1   
   164  154  156 1   
   165  163  164 1   
   166  163  168 1   
   167  164  165 1   
   168  164  166 1   
   169  164  167 1   
   170  170  171 1   
   171  170  172 1   
   172  173  174 1   
   173  173  175 1   
@<TRIPOS>SUBSTRUCTURE
     1 MOL         1 TEMP              0 ****  ****    0 ROOT
