@<TRIPOS>MOLECULE
MOL
  189   185     1     0     0
SMALL
resp


@<TRIPOS>ATOM
      1 C1          0.0540    4.0160   -3.6330 c3        1 MOL     -0.417541
      2 C2          0.7460    3.3330   -2.3920 c         1 MOL      0.574698
      3 O1          0.5220    3.6820   -1.2380 o         1 MOL     -0.514343
      4 H1          0.5380    3.6770   -4.5490 hc        1 MOL      0.113608
      5 H2         -1.0000    3.7420   -3.6570 hc        1 MOL      0.113608
      6 H3          0.1490    5.0980   -3.5520 hc        1 MOL      0.113608
      7 N1          1.8100    2.5110   -2.6910 n         1 MOL     -0.526417
      8 C3          2.6720    1.9500   -1.6140 c3        1 MOL      0.451502
      9 C4          3.6370    3.0550   -1.2120 c         1 MOL      0.194581
     10 O2          4.8660    3.0660   -1.5060 o         1 MOL     -0.432440
     11 C5          3.4160    0.6700   -2.1940 c3        1 MOL     -0.222350
     12 C6          4.3260   -0.1070   -1.2210 c         1 MOL      0.654724
     13 O3          4.0130    0.0140   -0.0100 o         1 MOL     -0.594196
     14 O4          5.3550   -0.7520   -1.5780 o         1 MOL     -0.594196
     15 H4          2.0770    2.2620   -3.6370 hn        1 MOL      0.320710
     16 H5          2.0930    1.6580   -0.7420 h1        1 MOL      0.010038
     17 H6          3.9670    0.9570   -3.0960 hc        1 MOL      0.012879
     18 H7          2.6370   -0.0580   -2.4300 hc        1 MOL      0.012879
     19 N2          3.1360    4.1370   -0.5900 n         1 MOL     -0.241712
     20 C7          3.8220    5.2850   -0.0570 c3        1 MOL     -0.026200
     21 C8          4.7450    4.8330    1.0590 c         1 MOL      0.391797
     22 O5          5.7290    5.5280    1.3920 o         1 MOL     -0.550959
     23 C9          2.8740    6.3510    0.4600 c3        1 MOL     -0.253375
     24 C10         1.9460    6.8640   -0.6730 c3        1 MOL      0.257947
     25 C11         0.8740    7.7430   -0.0910 c3        1 MOL     -0.138124
     26 C12        -0.2390    8.0990   -1.0480 c3        1 MOL     -0.058018
     27 N3          0.2220    9.0340   -2.1030 n4        1 MOL     -0.338254
     28 H8          2.1270    4.1680   -0.5420 hn        1 MOL      0.253310
     29 H9          4.3450    5.7370   -0.8950 h1        1 MOL      0.091974
     30 H10         3.4000    7.1640    0.9710 hc        1 MOL      0.101960
     31 H11         2.2830    5.8040    1.1930 hc        1 MOL      0.101960
     32 H12         1.4910    5.9910   -1.1410 hc        1 MOL     -0.056851
     33 H13         2.4680    7.4660   -1.4190 hc        1 MOL     -0.056851
     34 H14         1.2280    8.6160    0.4450 hc        1 MOL      0.062351
     35 H15         0.4090    7.1960    0.7300 hc        1 MOL      0.062351
     36 H16        -0.9740    8.6720   -0.4740 hx        1 MOL      0.126104
     37 H17        -0.6310    7.1860   -1.4810 hx        1 MOL      0.126104
     38 H18         0.8030    8.5770   -2.7880 hn        1 MOL      0.322370
     39 H19        -0.5930    9.4900   -2.4850 hn        1 MOL      0.322370
     40 H20         0.8130    9.6820   -1.6040 hn        1 MOL      0.322370
     41 N4          4.5710    3.6520    1.6500 n         1 MOL     -0.065154
     42 C13         5.3910    3.1570    2.7150 c3        1 MOL      0.024351
     43 C14         6.5650    2.2460    2.2090 c         1 MOL      0.355711
     44 O6          7.5310    2.1130    2.9500 o         1 MOL     -0.505262
     45 C15         4.5430    2.2680    3.6580 c3        1 MOL     -0.328148
     46 C16         3.7290    1.2470    2.9970 c         1 MOL      0.924630
     47 O7          2.6550    1.5400    2.4680 o         1 MOL     -0.746622
     48 O8          4.0930    0.0820    2.9940 o         1 MOL     -0.746622
     49 H21         3.7790    3.0410    1.4640 hn        1 MOL      0.028317
     50 H22         5.8020    3.9970    3.2810 h1        1 MOL      0.090696
     51 H23         3.8360    2.8210    4.2880 hc        1 MOL      0.072550
     52 H24         5.2100    1.7020    4.3000 hc        1 MOL      0.072550
     53 N5          6.4640    1.4780    1.0890 n         1 MOL      0.057332
     54 C17         7.4700    0.5900    0.5820 c3        1 MOL     -0.372001
     55 C18         7.5960   -0.7560    1.2630 c         1 MOL      0.660454
     56 O9          8.6770   -1.1600    1.6490 o         1 MOL     -0.583342
     57 H25         5.6240    1.5830    0.5500 hn        1 MOL      0.025849
     58 H26         8.3870    1.0950    0.8660 h1        1 MOL      0.134236
     59 H27         7.4270    0.5160   -0.5060 h1        1 MOL      0.134236
     60 N6          6.5190   -1.5750    1.4060 n         1 MOL     -0.279956
     61 C19         6.5080   -2.9970    1.6810 c3        1 MOL     -0.002176
     62 C20         6.4190   -3.8710    0.3810 c         1 MOL      0.366487
     63 O10         6.5280   -5.0810    0.4430 o         1 MOL     -0.512991
     64 C21         5.3450   -3.3930    2.6340 c3        1 MOL     -0.215705
     65 C22         3.9450   -3.0420    2.3170 c         1 MOL      0.899722
     66 O11         3.1550   -2.5820    3.1610 o         1 MOL     -0.754538
     67 O12         3.4810   -3.1140    1.1370 o         1 MOL     -0.754538
     68 H28         5.6310   -1.0910    1.3250 hn        1 MOL      0.114422
     69 H29         7.4450   -3.2890    2.1530 h1        1 MOL      0.121613
     70 H30         5.6060   -3.1130    3.6540 hc        1 MOL      0.066387
     71 H31         5.4270   -4.4620    2.8040 hc        1 MOL      0.066387
     72 N7          6.1830   -3.2410   -0.8210 n         1 MOL     -0.149237
     73 C23         6.0500   -3.8980   -2.1290 c3        1 MOL     -0.188545
     74 C24         4.6660   -4.4210   -2.4090 c         1 MOL      0.555691
     75 O13         4.5700   -5.1570   -3.3930 o         1 MOL     -0.571628
     76 H32         6.0730   -2.2380   -0.8930 hn        1 MOL      0.153069
     77 H33         6.8360   -4.6540   -2.1660 h1        1 MOL      0.101377
     78 H34         6.3110   -3.1330   -2.8650 h1        1 MOL      0.101377
     79 N8          3.6300   -4.0180   -1.6650 n         1 MOL     -0.235689
     80 C25         2.2030   -4.3910   -1.8820 c3        1 MOL     -0.254769
     81 C26         1.2430   -3.1840   -1.6460 c         1 MOL      0.668985
     82 O14         1.4900   -2.1880   -0.9420 o         1 MOL     -0.548706
     83 C27         1.8970   -5.6270   -0.9680 c3        1 MOL      0.492415
     84 C28         2.6480   -6.9080   -1.3960 c3        1 MOL     -0.543966
     85 O15         2.2720   -5.2970    0.3480 oh        1 MOL     -0.625290
     86 H35         3.7770   -3.1950   -1.1010 hn        1 MOL      0.229831
     87 H36         2.0440   -4.7030   -2.9140 h1        1 MOL      0.101277
     88 H37         0.8110   -5.7580   -0.9630 h1        1 MOL     -0.048895
     89 H38         2.7670   -4.4710    0.3340 ho        1 MOL      0.404147
     90 H39         2.4320   -7.0640   -2.4510 hc        1 MOL      0.139658
     91 H40         3.7050   -6.7040   -1.2390 hc        1 MOL      0.139658
     92 H41         2.3700   -7.7550   -0.7670 hc        1 MOL      0.139658
     93 N9          0.1080   -3.2760   -2.3700 n         1 MOL     -0.650005
     94 C29        -0.9550   -2.2850   -2.2810 c3        1 MOL      0.040573
     95 C30        -2.1030   -3.0940   -1.8060 c         1 MOL      0.516593
     96 O16        -2.5170   -3.9740   -2.5200 o         1 MOL     -0.562005
     97 C31        -1.2670   -1.5910   -3.6590 c3        1 MOL      0.064225
     98 C32         0.0060   -1.1420   -4.4520 c3        1 MOL      0.289660
     99 C33        -2.0720   -0.2520   -3.3290 c3        1 MOL     -0.281748
    100 C34        -0.1720   -0.5570   -5.8690 c3        1 MOL     -0.301874
    101 H42        -0.1260   -4.1190   -2.8670 hn        1 MOL      0.335783
    102 H43        -0.7740   -1.4680   -1.5800 h1        1 MOL      0.172577
    103 H44        -1.8450   -2.2230   -4.3320 hc        1 MOL      0.015210
    104 H45         0.6640   -1.9780   -4.6970 hc        1 MOL     -0.049769
    105 H46         0.5420   -0.4860   -3.7640 hc        1 MOL     -0.049769
    106 H47        -2.3100    0.3840   -4.1850 hc        1 MOL      0.028690
    107 H48        -3.0750   -0.4820   -2.9810 hc        1 MOL      0.028690
    108 H49        -1.5480    0.3240   -2.5550 hc        1 MOL      0.028690
    109 H50        -1.1220   -0.0260   -5.9990 hc        1 MOL      0.063129
    110 H51         0.6390    0.1200   -6.1660 hc        1 MOL      0.063129
    111 H52        -0.1340   -1.4110   -6.5450 hc        1 MOL      0.063129
    112 N10        -2.7230   -2.6690   -0.7430 n         1 MOL     -0.124616
    113 C35        -4.1280   -2.8760   -0.3230 c3        1 MOL     -0.179789
    114 C36        -5.1720   -1.9820   -1.0700 c         1 MOL      0.506498
    115 O17        -4.8210   -0.9060   -1.5250 o         1 MOL     -0.337439
    116 C37        -4.2210   -2.6950    1.2490 c3        1 MOL      0.322946
    117 C38        -3.4350   -3.7130    2.0690 c3        1 MOL     -0.594885
    118 O18        -3.8360   -1.4340    1.7620 oh        1 MOL     -0.579451
    119 H53        -2.2600   -1.9790   -0.1590 hn        1 MOL      0.092123
    120 H54        -4.3810   -3.9130   -0.5300 h1        1 MOL      0.088538
    121 H55        -5.2580   -2.7530    1.5680 h1        1 MOL      0.020578
    122 H56        -2.9880   -1.1340    1.4300 ho        1 MOL      0.391143
    123 H57        -3.9290   -3.6660    3.0430 hc        1 MOL      0.160292
    124 H58        -3.5970   -4.6750    1.5840 hc        1 MOL      0.160292
    125 H59        -2.3770   -3.4700    1.9820 hc        1 MOL      0.160292
    126 N11        -6.4390   -2.3760   -1.0630 n         1 MOL     -0.425346
    127 C39        -7.6060   -1.5260   -1.4480 c3        1 MOL     -0.074228
    128 C40        -7.6220   -0.0830   -0.8540 c         1 MOL      0.187041
    129 O19        -7.9340    0.8750   -1.5720 o         1 MOL     -0.433007
    130 C41        -8.9580   -2.0640   -0.9580 c3        1 MOL      0.300612
    131 C42        -9.2980   -3.3260   -1.6410 c3        1 MOL     -0.424156
    132 O20        -8.7750   -2.4270    0.3730 oh        1 MOL     -0.574028
    133 H60        -6.5970   -3.1770   -0.4670 hn        1 MOL      0.269107
    134 H61        -7.6000   -1.4730   -2.5380 h1        1 MOL      0.163993
    135 H62        -9.7880   -1.3560   -0.9990 h1        1 MOL      0.072160
    136 H63        -9.5200   -2.1280    0.9090 ho        1 MOL      0.366848
    137 H64        -8.4160   -3.9610   -1.6440 hc        1 MOL      0.124272
    138 H65       -10.0720   -3.9430   -1.1740 hc        1 MOL      0.124272
    139 H66        -9.4620   -3.1050   -2.6980 hc        1 MOL      0.124272
    140 N12        -7.3810   -0.0340    0.4540 n         1 MOL     -0.110277
    141 C43        -7.3200    1.1840    1.2630 c3        1 MOL     -0.125351
    142 C44        -6.1900    2.1560    0.8050 c         1 MOL      0.370021
    143 O21        -6.3370    3.3840    0.8350 o         1 MOL     -0.527818
    144 C45        -7.3970    0.8360    2.8000 c3        1 MOL      0.018119
    145 C46        -8.6420    0.0840    3.2190 c3        1 MOL      0.087936
    146 C47        -8.9140    0.1150    4.7720 c3        1 MOL     -0.090650
    147 C48        -7.9350   -0.7320    5.5830 c3        1 MOL      0.042277
    148 N13        -8.4550   -0.8500    6.9580 n4        1 MOL     -0.176125
    149 H67        -7.3440   -0.9380    0.9020 hn        1 MOL      0.193182
    150 H68        -8.2210    1.7470    1.0120 h1        1 MOL      0.112719
    151 H69        -7.3060    1.8230    3.2400 hc        1 MOL      0.016632
    152 H70        -6.4770    0.3030    3.0280 hc        1 MOL      0.016632
    153 H71        -8.6180   -0.9520    2.8960 hc        1 MOL      0.004716
    154 H72        -9.5390    0.5250    2.7800 hc        1 MOL      0.004716
    155 H73        -9.9080   -0.3150    4.9320 hc        1 MOL      0.038484
    156 H74        -8.8220    1.0960    5.2420 hc        1 MOL      0.038484
    157 H75        -6.9920   -0.1910    5.6490 hx        1 MOL      0.074847
    158 H76        -7.8780   -1.7430    5.1650 hx        1 MOL      0.074847
    159 H77        -7.8070   -1.1130    7.6800 hn        1 MOL      0.231397
    160 H78        -8.7990    0.0580    7.2150 hn        1 MOL      0.231397
    161 H79        -9.2680   -1.4540    6.9080 hn        1 MOL      0.231397
    162 N14        -5.1470    1.6370    0.1940 n         1 MOL      0.015777
    163 C49        -4.1260    2.5000   -0.3960 c3        1 MOL     -0.124706
    164 C50        -4.4840    3.0640   -1.7270 c         1 MOL      0.478779
    165 O22        -3.8120    4.0440   -2.0550 o         1 MOL     -0.586594
    166 C51        -2.8370    1.6530   -0.4320 c3        1 MOL     -0.151846
    167 C52        -2.1870    1.1770    0.8600 c3        1 MOL     -0.054067
    168 C53        -1.0470    0.0700    0.7290 c         1 MOL      0.807259
    169 O23        -1.2520   -0.9920    1.3380 o         1 MOL     -0.762469
    170 O24         0.1030    0.4250    0.2970 o         1 MOL     -0.762469
    171 H80        -5.1140    0.6410    0.0130 hn        1 MOL      0.034352
    172 H81        -3.9760    3.3660    0.2460 h1        1 MOL      0.128775
    173 H82        -1.9200    2.1000   -0.8160 hc        1 MOL      0.118642
    174 H83        -3.1010    0.7840   -1.0340 hc        1 MOL      0.118642
    175 H84        -2.9550    0.8500    1.5630 hc        1 MOL      0.002527
    176 H85        -1.7340    2.0480    1.3120 hc        1 MOL      0.002527
    177 N15        -5.4900    2.6360   -2.4620 n         1 MOL     -0.122429
    178 C54        -6.2160    3.2120   -3.6410 c3        1 MOL     -0.287161
    179 H86        -5.7310    2.8860   -4.5610 h1        1 MOL      0.121688
    180 H87        -7.2500    2.8680   -3.6360 h1        1 MOL      0.121688
    181 H88        -6.1950    4.3010   -3.5860 h1        1 MOL      0.121688
    182 H89        -5.8190    1.7300   -2.1490 hn        1 MOL      0.160826
    183 Ca1         2.0880   -0.7800    1.5470 Ca        1 MOL      1.724506
    184 O25         0.3810   -2.8770    1.6010 oh        1 MOL     -0.863570
    185 H90        -0.3820   -2.2910    1.5390 ho        1 MOL      0.414279
    186 H91         0.0340   -3.6710    2.0000 ho        1 MOL      0.414279
    187 O26         0.3590    0.0220    3.5070 oh        1 MOL     -0.863570
    188 H92         0.4770   -0.0850    4.4490 ho        1 MOL      0.414279
    189 H93        -0.5080   -0.3410    3.3260 ho        1 MOL      0.414279
@<TRIPOS>BOND
     1    1    2 1   
     2    1    4 1   
     3    1    5 1   
     4    1    6 1   
     5    2    3 2   
     6    2    7 1   
     7    7    8 1   
     8    7   15 1   
     9    8    9 1   
    10    8   11 1   
    11    8   16 1   
    12    9   10 2   
    13    9   19 1   
    14   11   12 1   
    15   11   17 1   
    16   11   18 1   
    17   12   13 1   
    18   12   14 1   
    19   19   20 1   
    20   19   28 1   
    21   20   21 1   
    22   20   23 1   
    23   20   29 1   
    24   21   22 2   
    25   21   41 1   
    26   23   24 1   
    27   23   30 1   
    28   23   31 1   
    29   24   25 1   
    30   24   32 1   
    31   24   33 1   
    32   25   26 1   
    33   25   34 1   
    34   25   35 1   
    35   26   27 1   
    36   26   36 1   
    37   26   37 1   
    38   27   38 1   
    39   27   39 1   
    40   27   40 1   
    41   41   42 1   
    42   41   49 1   
    43   42   43 1   
    44   42   45 1   
    45   42   50 1   
    46   43   44 2   
    47   43   53 1   
    48   45   46 1   
    49   45   51 1   
    50   45   52 1   
    51   46   47 1   
    52   46   48 1   
    53   53   54 1   
    54   53   57 1   
    55   54   55 1   
    56   54   58 1   
    57   54   59 1   
    58   55   56 2   
    59   55   60 1   
    60   60   61 1   
    61   60   68 1   
    62   61   62 1   
    63   61   64 1   
    64   61   69 1   
    65   62   63 2   
    66   62   72 1   
    67   64   65 1   
    68   64   70 1   
    69   64   71 1   
    70   65   66 1   
    71   65   67 1   
    72   72   73 1   
    73   72   76 1   
    74   73   74 1   
    75   73   77 1   
    76   73   78 1   
    77   74   75 2   
    78   74   79 1   
    79   79   80 1   
    80   79   86 1   
    81   80   81 1   
    82   80   83 1   
    83   80   87 1   
    84   81   82 2   
    85   81   93 1   
    86   83   84 1   
    87   83   85 1   
    88   83   88 1   
    89   84   90 1   
    90   84   91 1   
    91   84   92 1   
    92   85   89 1   
    93   93   94 1   
    94   93  101 1   
    95   94   95 1   
    96   94   97 1   
    97   94  102 1   
    98   95   96 2   
    99   95  112 1   
   100   97   98 1   
   101   97   99 1   
   102   97  103 1   
   103   98  100 1   
   104   98  104 1   
   105   98  105 1   
   106   99  106 1   
   107   99  107 1   
   108   99  108 1   
   109  100  109 1   
   110  100  110 1   
   111  100  111 1   
   112  112  113 1   
   113  112  119 1   
   114  113  114 1   
   115  113  116 1   
   116  113  120 1   
   117  114  115 2   
   118  114  126 1   
   119  116  117 1   
   120  116  118 1   
   121  116  121 1   
   122  117  123 1   
   123  117  124 1   
   124  117  125 1   
   125  118  122 1   
   126  126  127 1   
   127  126  133 1   
   128  127  128 1   
   129  127  130 1   
   130  127  134 1   
   131  128  129 2   
   132  128  140 1   
   133  130  131 1   
   134  130  132 1   
   135  130  135 1   
   136  131  137 1   
   137  131  138 1   
   138  131  139 1   
   139  132  136 1   
   140  140  141 1   
   141  140  149 1   
   142  141  142 1   
   143  141  144 1   
   144  141  150 1   
   145  142  143 2   
   146  142  162 1   
   147  144  145 1   
   148  144  151 1   
   149  144  152 1   
   150  145  146 1   
   151  145  153 1   
   152  145  154 1   
   153  146  147 1   
   154  146  155 1   
   155  146  156 1   
   156  147  148 1   
   157  147  157 1   
   158  147  158 1   
   159  148  159 1   
   160  148  160 1   
   161  148  161 1   
   162  162  163 1   
   163  162  171 1   
   164  163  164 1   
   165  163  166 1   
   166  163  172 1   
   167  164  165 2   
   168  164  177 1   
   169  166  167 1   
   170  166  173 1   
   171  166  174 1   
   172  167  168 1   
   173  167  175 1   
   174  167  176 1   
   175  168  169 1   
   176  168  170 1   
   177  177  178 1   
   178  177  182 1   
   179  178  179 1   
   180  178  180 1   
   181  178  181 1   
   182  184  185 1   
   183  184  186 1   
   184  187  188 1   
   185  187  189 1   
@<TRIPOS>SUBSTRUCTURE
     1 MOL         1 TEMP              0 ****  ****    0 ROOT
