@<TRIPOS>MOLECULE
MOL
  189   185     1     0     0
SMALL
resp


@<TRIPOS>ATOM
      1 C1         -0.7190    0.7620    6.8540 c3        1 MOL     -0.260509
      2 C2         -0.9680    1.0410    5.3610 c         1 MOL      0.773359
      3 O1         -0.0400    1.5660    4.7590 o         1 MOL     -0.624228
      4 H1         -0.8230   -0.3060    7.0450 hc        1 MOL      0.058376
      5 H2          0.2880    1.0820    7.1210 hc        1 MOL      0.058376
      6 H3         -1.4460    1.3100    7.4520 hc        1 MOL      0.058376
      7 N1         -2.0680    0.5380    4.8190 n         1 MOL     -0.606199
      8 C3         -2.3800    0.7700    3.4180 c3        1 MOL      0.032258
      9 C4         -2.7500    2.3040    3.1910 c         1 MOL      0.521587
     10 O2         -3.6480    2.8510    3.8180 o         1 MOL     -0.544971
     11 C5         -3.5890   -0.1090    3.0520 c3        1 MOL     -0.099145
     12 C6         -4.0960   -0.0610    1.5760 c         1 MOL      0.763577
     13 O3         -5.2500   -0.4510    1.3650 o         1 MOL     -0.690272
     14 O4         -3.3890    0.5380    0.7220 o         1 MOL     -0.690272
     15 H4         -2.6320   -0.1340    5.3270 hn        1 MOL      0.333636
     16 H5         -1.5450    0.4420    2.8020 h1        1 MOL      0.037178
     17 H6         -4.4630    0.0250    3.6910 hc        1 MOL      0.030391
     18 H7         -3.2690   -1.1310    3.2430 hc        1 MOL      0.030391
     19 N2         -1.9460    2.9970    2.3470 n         1 MOL     -0.102861
     20 C7         -2.0400    4.4330    2.2710 c3        1 MOL     -0.233549
     21 C8         -3.0630    4.8750    1.1750 c         1 MOL      0.566830
     22 O5         -3.3080    6.0390    1.0410 o         1 MOL     -0.554341
     23 C9         -0.6100    4.9700    2.0190 c3        1 MOL     -0.075749
     24 C10        -0.1620    4.7840    0.5440 c3        1 MOL      0.472751
     25 C11         1.2180    5.3050    0.2420 c3        1 MOL     -0.078004
     26 C12         1.9360    4.7790   -0.9960 c3        1 MOL      0.120849
     27 N3          1.0810    4.9190   -2.2200 n4        1 MOL     -0.471493
     28 H8         -1.3440    2.4470    1.7450 hn        1 MOL      0.072712
     29 H9         -2.4460    4.8120    3.2010 h1        1 MOL      0.156733
     30 H10         0.2270    4.6020    2.6170 hc        1 MOL      0.040880
     31 H11        -0.5730    6.0420    2.2330 hc        1 MOL      0.040880
     32 H12        -0.9030    5.3100   -0.0720 hc        1 MOL     -0.147564
     33 H13        -0.1300    3.7390    0.2570 hc        1 MOL     -0.147564
     34 H14         1.8570    5.0280    1.0750 hc        1 MOL      0.007805
     35 H15         1.0360    6.3790    0.3610 hc        1 MOL      0.007805
     36 H16         2.0270    3.7050   -0.8030 hx        1 MOL      0.036656
     37 H17         2.9350    5.2070   -1.0040 hx        1 MOL      0.036656
     38 H18         0.6220    5.8230   -2.1950 hn        1 MOL      0.338043
     39 H19         1.6910    4.8680   -3.0210 hn        1 MOL      0.338043
     40 H20         0.3210    4.2560   -2.2760 hn        1 MOL      0.338043
     41 N4         -3.5610    4.0160    0.3330 n         1 MOL     -0.427091
     42 C13        -4.5440    4.4110   -0.7110 c3        1 MOL     -0.025401
     43 C14        -5.7540    3.5870   -0.8580 c         1 MOL      0.509460
     44 O6         -6.6050    3.7580   -1.7320 o         1 MOL     -0.501663
     45 C15        -3.8120    4.7490   -1.9780 c3        1 MOL     -0.115016
     46 C16        -2.8140    3.6650   -2.4550 c         1 MOL      0.982845
     47 O7         -2.8860    2.5010   -2.0490 o         1 MOL     -0.815710
     48 O8         -1.9940    4.0490   -3.3660 o         1 MOL     -0.815710
     49 H21        -3.3080    3.0600    0.4920 hn        1 MOL      0.195891
     50 H22        -5.0240    5.3130   -0.3290 h1        1 MOL      0.119465
     51 H23        -3.1850    5.5950   -1.7100 hc        1 MOL      0.028670
     52 H24        -4.4690    5.0840   -2.7860 hc        1 MOL      0.028670
     53 N5         -5.9700    2.6130    0.1010 n         1 MOL     -0.237041
     54 C17        -7.2990    1.9680    0.2950 c3        1 MOL     -0.345345
     55 C18        -7.7070    0.9720   -0.7160 c         1 MOL      0.637789
     56 O9         -8.8280    1.0990   -1.2560 o         1 MOL     -0.577923
     57 H25        -5.2240    2.4180    0.7560 hn        1 MOL      0.238619
     58 H26        -8.0500    2.7420    0.1470 h1        1 MOL      0.135945
     59 H27        -7.3240    1.5790    1.3200 h1        1 MOL      0.135945
     60 N6         -6.9150   -0.0660   -0.9480 n         1 MOL     -0.225928
     61 C19        -7.2530   -1.1310   -1.9100 c3        1 MOL     -0.229458
     62 C20        -6.9560   -2.5130   -1.3350 c         1 MOL      0.616086
     63 O10        -6.9190   -3.5310   -2.0200 o         1 MOL     -0.529526
     64 C21        -6.4050   -0.8480   -3.1410 c3        1 MOL      0.183768
     65 C22        -4.9220   -0.5040   -2.8930 c         1 MOL      0.508817
     66 O11        -4.3990    0.4580   -3.5260 o         1 MOL     -0.606055
     67 O12        -4.2570   -1.0540   -1.9650 o         1 MOL     -0.606055
     68 H28        -6.0710   -0.1440   -0.4090 hn        1 MOL      0.100518
     69 H29        -8.3050   -1.0900   -2.1840 h1        1 MOL      0.129726
     70 H30        -6.8510   -0.0650   -3.7600 hc        1 MOL     -0.011626
     71 H31        -6.4520   -1.6810   -3.8440 hc        1 MOL     -0.011626
     72 N7         -6.6960   -2.5770   -0.0240 n         1 MOL     -0.498127
     73 C23        -6.3930   -3.9000    0.6220 c3        1 MOL     -0.004940
     74 C24        -5.1110   -4.6330    0.2470 c         1 MOL      0.445698
     75 O13        -5.0560   -5.8630    0.2980 o         1 MOL     -0.534924
     76 H32        -6.3860   -1.8120    0.5580 hn        1 MOL      0.334753
     77 H33        -7.2240   -4.6050    0.5180 h1        1 MOL      0.071169
     78 H34        -6.3480   -3.6550    1.6820 h1        1 MOL      0.071169
     79 N8         -4.1120   -3.8600   -0.1100 n         1 MOL     -0.205368
     80 C25        -2.8250   -4.3700   -0.5820 c3        1 MOL     -0.257378
     81 C26        -1.6270   -3.5660   -0.1530 c         1 MOL      0.739627
     82 O14        -1.6540   -2.3210   -0.3180 o         1 MOL     -0.733856
     83 C27        -2.8090   -4.6570   -2.1260 c3        1 MOL      0.515958
     84 C28        -3.6580   -5.8250   -2.5740 c3        1 MOL     -0.435776
     85 O15        -3.3280   -3.5940   -2.8570 oh        1 MOL     -0.564376
     86 H35        -4.3600   -2.8850   -0.1760 hn        1 MOL      0.178611
     87 H36        -2.6740   -5.3400   -0.1010 h1        1 MOL      0.089807
     88 H37        -1.7680   -4.9280   -2.3140 h1        1 MOL     -0.047368
     89 H38        -3.6600   -2.9560   -2.2250 ho        1 MOL      0.323191
     90 H39        -3.6100   -6.6340   -1.8410 hc        1 MOL      0.114482
     91 H40        -4.6840   -5.4730   -2.6140 hc        1 MOL      0.114482
     92 H41        -3.2460   -6.2210   -3.5020 hc        1 MOL      0.114482
     93 N9         -0.6250   -4.2170    0.3790 n         1 MOL     -0.584668
     94 C29         0.6180   -3.5960    0.7880 c3        1 MOL      0.179258
     95 C30         1.8660   -3.7350   -0.2130 c         1 MOL      0.469983
     96 O16         2.3260   -4.8110   -0.5050 o         1 MOL     -0.538966
     97 C31         0.9870   -4.0600    2.2940 c3        1 MOL     -0.022279
     98 C32         0.0200   -3.2900    3.1950 c3        1 MOL      0.161348
     99 C33         2.4570   -3.9120    2.6280 c3        1 MOL     -0.174811
    100 C34         0.1270   -3.5900    4.6980 c3        1 MOL     -0.352972
    101 H42        -0.7810   -5.1870    0.6380 hn        1 MOL      0.321593
    102 H43         0.3610   -2.5360    0.7940 h1        1 MOL     -0.008122
    103 H44         0.7380   -5.1160    2.2970 hc        1 MOL      0.029000
    104 H45        -1.0280   -3.4660    2.9340 hc        1 MOL      0.002318
    105 H46         0.2550   -2.2260    3.0880 hc        1 MOL      0.002318
    106 H47         2.7110   -4.2920    3.6180 hc        1 MOL      0.039166
    107 H48         2.9910   -4.5190    1.8970 hc        1 MOL      0.039166
    108 H49         2.7650   -2.8640    2.5520 hc        1 MOL      0.039166
    109 H50         0.9700   -3.0610    5.1430 hc        1 MOL      0.086299
    110 H51        -0.8420   -3.5470    5.1920 hc        1 MOL      0.086299
    111 H52         0.4620   -4.6310    4.7350 hc        1 MOL      0.086299
    112 N10         2.2420   -2.6180   -0.8280 n         1 MOL     -0.210580
    113 C35         3.4260   -2.4760   -1.7100 c3        1 MOL     -0.180304
    114 C36         4.7260   -2.2930   -0.8700 c         1 MOL      0.577240
    115 O17         4.5340   -1.8590    0.2910 o         1 MOL     -0.436559
    116 C37         3.2060   -1.4130   -2.7690 c3        1 MOL      0.203122
    117 C38         1.9460   -1.5530   -3.5690 c3        1 MOL     -0.200554
    118 O18         3.0440   -0.1570   -2.1460 oh        1 MOL     -0.613630
    119 H53         1.7260   -1.8180   -0.4860 hn        1 MOL      0.237028
    120 H54         3.5400   -3.4690   -2.1430 h1        1 MOL      0.112692
    121 H55         4.0530   -1.3550   -3.4600 h1        1 MOL      0.012151
    122 H56         2.1710   -0.0810   -1.7500 ho        1 MOL      0.343104
    123 H57         1.6580   -0.6780   -4.1620 hc        1 MOL      0.071832
    124 H58         2.0060   -2.3500   -4.3170 hc        1 MOL      0.071832
    125 H59         1.1120   -1.8600   -2.9430 hc        1 MOL      0.071832
    126 N11         5.9420   -2.4390   -1.4300 n         1 MOL     -0.512338
    127 C39         7.2870   -2.3770   -0.7990 c3        1 MOL      0.217189
    128 C40         7.4910   -1.1400    0.0770 c         1 MOL      0.171491
    129 O19         8.0860   -1.2280    1.1800 o         1 MOL     -0.447559
    130 C41         8.3630   -2.3950   -1.9580 c3        1 MOL      0.383842
    131 C42         9.6070   -3.2710   -1.6710 c3        1 MOL     -0.493871
    132 O20         7.8750   -3.0530   -3.1450 oh        1 MOL     -0.636592
    133 H60         6.0070   -2.8860   -2.3310 hn        1 MOL      0.291936
    134 H61         7.4880   -3.2850   -0.2390 h1        1 MOL      0.079659
    135 H62         8.7340   -1.3900   -2.1560 h1        1 MOL     -0.066101
    136 H63         8.5950   -2.9860   -3.7670 ho        1 MOL      0.404240
    137 H64        10.2110   -3.3840   -2.5670 hc        1 MOL      0.139692
    138 H65        10.1500   -2.7180   -0.9030 hc        1 MOL      0.139692
    139 H66         9.2010   -4.2470   -1.3850 hc        1 MOL      0.139692
    140 N12         6.8960    0.0210   -0.2860 n         1 MOL     -0.185562
    141 C43         6.9620    1.2530    0.4680 c3        1 MOL      0.126849
    142 C44         5.9470    1.3600    1.6330 c         1 MOL      0.286087
    143 O21         6.1810    1.9980    2.6420 o         1 MOL     -0.497220
    144 C45         6.9720    2.5390   -0.4870 c3        1 MOL     -0.300636
    145 C46         8.2390    2.4610   -1.4420 c3        1 MOL      0.357501
    146 C47         8.3680    3.7020   -2.3830 c3        1 MOL     -0.100319
    147 C48         9.7350    3.5040   -3.1310 c3        1 MOL      0.021616
    148 N13         9.9370    4.4970   -4.2570 n4        1 MOL     -0.183492
    149 H67         6.4280    0.0650   -1.1870 hn        1 MOL      0.217774
    150 H68         7.9120    1.3070    0.9980 h1        1 MOL      0.085421
    151 H69         7.0800    3.4420    0.1170 hc        1 MOL      0.078623
    152 H70         6.0750    2.5170   -1.1000 hc        1 MOL      0.078623
    153 H71         8.1500    1.5830   -2.0900 hc        1 MOL     -0.072260
    154 H72         9.1600    2.3310   -0.8810 hc        1 MOL     -0.072260
    155 H73         8.3850    4.5910   -1.7490 hc        1 MOL      0.042077
    156 H74         7.5480    3.6380   -3.1020 hc        1 MOL      0.042077
    157 H75         9.6820    2.5540   -3.6670 hx        1 MOL      0.077588
    158 H76        10.6040    3.6130   -2.4790 hx        1 MOL      0.077588
    159 H77        10.6180    4.0300   -4.8430 hn        1 MOL      0.254861
    160 H78         9.1340    4.8190   -4.7660 hn        1 MOL      0.254861
    161 H79        10.4060    5.2990   -3.8680 hn        1 MOL      0.254861
    162 N14         4.7750    0.7450    1.5430 n         1 MOL     -0.079189
    163 C49         3.7670    0.6980    2.5740 c3        1 MOL     -0.119839
    164 C50         4.1450   -0.3950    3.6040 c         1 MOL      0.482766
    165 O22         4.0290   -0.2770    4.8280 o         1 MOL     -0.541221
    166 C51         2.3540    0.3250    1.9920 c3        1 MOL      0.071580
    167 C52         1.8690    1.2780    0.8550 c3        1 MOL     -0.129646
    168 C53         0.6070    0.8240    0.0440 c         1 MOL      0.757119
    169 O23         0.6650   -0.0510   -0.8390 o         1 MOL     -0.663065
    170 O24        -0.4560    1.2970    0.4010 o         1 MOL     -0.663065
    171 H80         4.6100    0.2970    0.6550 hn        1 MOL      0.135898
    172 H81         3.6980    1.6560    3.1020 h1        1 MOL      0.128632
    173 H82         1.7040    0.3050    2.8710 hc        1 MOL      0.041958
    174 H83         2.4470   -0.7400    1.7360 hc        1 MOL      0.041958
    175 H84         2.6610    1.5230    0.1380 hc        1 MOL     -0.003347
    176 H85         1.7220    2.2620    1.3020 hc        1 MOL     -0.003347
    177 N15         4.8480   -1.4420    3.1310 n         1 MOL     -0.107294
    178 C54         5.5870   -2.5070    3.9560 c3        1 MOL     -0.341497
    179 H86         5.0660   -3.4600    3.8690 h1        1 MOL      0.130199
    180 H87         6.6050   -2.6160    3.5810 h1        1 MOL      0.130199
    181 H88         5.6160   -2.2020    5.0020 h1        1 MOL      0.130199
    182 H89         4.7850   -1.6230    2.1460 hn        1 MOL      0.154886
    183 Ca1        -2.0700    0.2050   -1.3950 Ca        1 MOL      1.769724
    184 O25        -1.5040   -1.4440   -3.3130 oh        1 MOL     -0.862133
    185 H90        -2.2190   -2.0870   -3.3750 ho        1 MOL      0.394401
    186 H91        -1.2020   -1.3410   -4.2140 ho        1 MOL      0.394401
    187 O26        -0.3790    1.8680   -3.0060 oh        1 MOL     -0.862133
    188 H92         0.3800    2.0740   -3.5500 ho        1 MOL      0.394401
    189 H93        -1.0280    2.5240   -3.2430 ho        1 MOL      0.394401
@<TRIPOS>BOND
     1    1    2 1   
     2    1    4 1   
     3    1    5 1   
     4    1    6 1   
     5    2    3 2   
     6    2    7 1   
     7    7    8 1   
     8    7   15 1   
     9    8    9 1   
    10    8   11 1   
    11    8   16 1   
    12    9   10 2   
    13    9   19 1   
    14   11   12 1   
    15   11   17 1   
    16   11   18 1   
    17   12   13 1   
    18   12   14 1   
    19   19   20 1   
    20   19   28 1   
    21   20   21 1   
    22   20   23 1   
    23   20   29 1   
    24   21   22 2   
    25   21   41 1   
    26   23   24 1   
    27   23   30 1   
    28   23   31 1   
    29   24   25 1   
    30   24   32 1   
    31   24   33 1   
    32   25   26 1   
    33   25   34 1   
    34   25   35 1   
    35   26   27 1   
    36   26   36 1   
    37   26   37 1   
    38   27   38 1   
    39   27   39 1   
    40   27   40 1   
    41   41   42 1   
    42   41   49 1   
    43   42   43 1   
    44   42   45 1   
    45   42   50 1   
    46   43   44 2   
    47   43   53 1   
    48   45   46 1   
    49   45   51 1   
    50   45   52 1   
    51   46   47 1   
    52   46   48 1   
    53   53   54 1   
    54   53   57 1   
    55   54   55 1   
    56   54   58 1   
    57   54   59 1   
    58   55   56 2   
    59   55   60 1   
    60   60   61 1   
    61   60   68 1   
    62   61   62 1   
    63   61   64 1   
    64   61   69 1   
    65   62   63 2   
    66   62   72 1   
    67   64   65 1   
    68   64   70 1   
    69   64   71 1   
    70   65   66 1   
    71   65   67 1   
    72   72   73 1   
    73   72   76 1   
    74   73   74 1   
    75   73   77 1   
    76   73   78 1   
    77   74   75 2   
    78   74   79 1   
    79   79   80 1   
    80   79   86 1   
    81   80   81 1   
    82   80   83 1   
    83   80   87 1   
    84   81   82 2   
    85   81   93 1   
    86   83   84 1   
    87   83   85 1   
    88   83   88 1   
    89   84   90 1   
    90   84   91 1   
    91   84   92 1   
    92   85   89 1   
    93   93   94 1   
    94   93  101 1   
    95   94   95 1   
    96   94   97 1   
    97   94  102 1   
    98   95   96 2   
    99   95  112 1   
   100   97   98 1   
   101   97   99 1   
   102   97  103 1   
   103   98  100 1   
   104   98  104 1   
   105   98  105 1   
   106   99  106 1   
   107   99  107 1   
   108   99  108 1   
   109  100  109 1   
   110  100  110 1   
   111  100  111 1   
   112  112  113 1   
   113  112  119 1   
   114  113  114 1   
   115  113  116 1   
   116  113  120 1   
   117  114  115 2   
   118  114  126 1   
   119  116  117 1   
   120  116  118 1   
   121  116  121 1   
   122  117  123 1   
   123  117  124 1   
   124  117  125 1   
   125  118  122 1   
   126  126  127 1   
   127  126  133 1   
   128  127  128 1   
   129  127  130 1   
   130  127  134 1   
   131  128  129 2   
   132  128  140 1   
   133  130  131 1   
   134  130  132 1   
   135  130  135 1   
   136  131  137 1   
   137  131  138 1   
   138  131  139 1   
   139  132  136 1   
   140  140  141 1   
   141  140  149 1   
   142  141  142 1   
   143  141  144 1   
   144  141  150 1   
   145  142  143 2   
   146  142  162 1   
   147  144  145 1   
   148  144  151 1   
   149  144  152 1   
   150  145  146 1   
   151  145  153 1   
   152  145  154 1   
   153  146  147 1   
   154  146  155 1   
   155  146  156 1   
   156  147  148 1   
   157  147  157 1   
   158  147  158 1   
   159  148  159 1   
   160  148  160 1   
   161  148  161 1   
   162  162  163 1   
   163  162  171 1   
   164  163  164 1   
   165  163  166 1   
   166  163  172 1   
   167  164  165 2   
   168  164  177 1   
   169  166  167 1   
   170  166  173 1   
   171  166  174 1   
   172  167  168 1   
   173  167  175 1   
   174  167  176 1   
   175  168  169 1   
   176  168  170 1   
   177  177  178 1   
   178  177  182 1   
   179  178  179 1   
   180  178  180 1   
   181  178  181 1   
   182  184  185 1   
   183  184  186 1   
   184  187  188 1   
   185  187  189 1   
@<TRIPOS>SUBSTRUCTURE
     1 MOL         1 TEMP              0 ****  ****    0 ROOT
