@<TRIPOS>MOLECULE
MOL
  189   185     1     0     0
SMALL
resp


@<TRIPOS>ATOM
      1 C1         -0.4120   -0.1150    6.6660 c3        1 MOL     -0.272072
      2 C2         -0.7850    0.1380    5.2270 c         1 MOL      0.779277
      3 O1          0.1000    0.3440    4.4110 o         1 MOL     -0.642454
      4 H1          0.4370    0.5120    6.9360 hc        1 MOL      0.067814
      5 H2         -1.2590    0.1260    7.3090 hc        1 MOL      0.067814
      6 H3         -0.1440   -1.1640    6.7930 hc        1 MOL      0.067814
      7 N1         -2.0930    0.2450    4.8490 n         1 MOL     -0.719683
      8 C3         -2.4740    0.5770    3.4290 c3        1 MOL      0.260646
      9 C4         -2.8540    2.0570    3.3190 c         1 MOL      0.472842
     10 O2         -3.8540    2.4850    3.8220 o         1 MOL     -0.558737
     11 C5         -3.5630   -0.3740    3.0620 c3        1 MOL     -0.189593
     12 C6         -4.2110   -0.1480    1.7400 c         1 MOL      0.667534
     13 O3         -3.6020    0.5200    0.8390 o         1 MOL     -0.661710
     14 O4         -5.4330   -0.5540    1.6210 o         1 MOL     -0.661710
     15 H4         -2.8320    0.1200    5.5370 hn        1 MOL      0.356230
     16 H5         -1.6730    0.2600    2.7540 h1        1 MOL      0.044311
     17 H6         -4.2560   -0.3300    3.9060 hc        1 MOL      0.045039
     18 H7         -3.1940   -1.4060    3.0570 hc        1 MOL      0.045039
     19 N2         -2.0830    2.8060    2.6350 n         1 MOL     -0.285339
     20 C7         -2.1720    4.3200    2.6390 c3        1 MOL      0.076159
     21 C8         -3.3530    4.7910    1.6900 c         1 MOL      0.430132
     22 O5         -3.6990    5.9500    1.7290 o         1 MOL     -0.536137
     23 C9         -0.8080    5.0140    2.2630 c3        1 MOL     -0.433346
     24 C10        -0.3520    4.8470    0.8280 c3        1 MOL      0.700703
     25 C11         0.8190    5.8340    0.3770 c3        1 MOL     -0.398898
     26 C12         1.3130    5.4560   -1.0130 c3        1 MOL      0.259154
     27 N3          0.2330    5.6260   -2.0060 n4        1 MOL     -0.457744
     28 H8         -1.3130    2.3040    2.2260 hn        1 MOL      0.204168
     29 H9         -2.5510    4.5860    3.6310 h1        1 MOL      0.100499
     30 H10         0.0060    4.5590    2.8270 hc        1 MOL      0.109457
     31 H11        -1.0040    6.0790    2.3360 hc        1 MOL      0.109457
     32 H12        -1.1980    5.0090    0.1590 hc        1 MOL     -0.175460
     33 H13         0.0180    3.8200    0.7060 hc        1 MOL     -0.175460
     34 H14         1.6490    5.6630    1.0710 hc        1 MOL      0.092825
     35 H15         0.4800    6.8640    0.3850 hc        1 MOL      0.092825
     36 H16         1.7510    4.4610   -1.1500 hx        1 MOL      0.001487
     37 H17         2.1440    6.0950   -1.3240 hx        1 MOL      0.001487
     38 H18        -0.5900    5.0450   -1.9440 hn        1 MOL      0.326663
     39 H19        -0.2220    6.5280   -1.9970 hn        1 MOL      0.326663
     40 H20         0.6080    5.3800   -2.9060 hn        1 MOL      0.326663
     41 N4         -3.7160    4.0000    0.6580 n         1 MOL     -0.234400
     42 C13        -4.7490    4.3270   -0.4100 c3        1 MOL      0.067029
     43 C14        -6.0500    3.5150   -0.4680 c         1 MOL      0.434027
     44 O6         -6.8810    3.7320   -1.2750 o         1 MOL     -0.518953
     45 C15        -4.0200    4.4420   -1.8180 c3        1 MOL     -0.158119
     46 C16        -2.8740    3.4930   -2.0430 c         1 MOL      0.958459
     47 O7         -1.8160    3.8390   -2.6630 o         1 MOL     -0.809226
     48 O8         -3.0180    2.3320   -1.5920 o         1 MOL     -0.809226
     49 H21        -3.2940    3.0880    0.7010 hn        1 MOL      0.067899
     50 H22        -5.0410    5.3110   -0.0440 h1        1 MOL      0.086897
     51 H23        -3.6590    5.4640   -1.9050 hc        1 MOL      0.029905
     52 H24        -4.6890    4.3880   -2.6780 hc        1 MOL      0.029905
     53 N5         -6.2220    2.4680    0.3390 n         1 MOL     -0.215959
     54 C17        -7.4730    1.6860    0.3950 c3        1 MOL     -0.377589
     55 C18        -7.6050    0.5600   -0.7080 c         1 MOL      0.688957
     56 O9         -8.6970    0.0910   -0.9040 o         1 MOL     -0.576034
     57 H25        -5.5220    2.2320    1.0200 hn        1 MOL      0.237276
     58 H26        -8.2870    2.4090    0.3810 h1        1 MOL      0.162385
     59 H27        -7.3420    1.1780    1.3480 h1        1 MOL      0.162385
     60 N6         -6.4910    0.1590   -1.4280 n         1 MOL     -0.416463
     61 C19        -6.4870   -0.8530   -2.5360 c3        1 MOL     -0.076368
     62 C20        -6.3800   -2.2650   -1.9790 c         1 MOL      0.496846
     63 O10        -6.2940   -3.1810   -2.8060 o         1 MOL     -0.537133
     64 C21        -5.3500   -0.5330   -3.6020 c3        1 MOL     -0.139832
     65 C22        -3.9370   -0.6610   -3.0000 c         1 MOL      0.714215
     66 O11        -3.7750   -1.4470   -1.9980 o         1 MOL     -0.702973
     67 O12        -3.0190    0.0830   -3.4820 o         1 MOL     -0.702973
     68 H28        -5.5890    0.5660   -1.2350 hn        1 MOL      0.292089
     69 H29        -7.4410   -0.8510   -3.0560 h1        1 MOL      0.129127
     70 H30        -5.4720    0.4770   -3.9970 hc        1 MOL      0.059676
     71 H31        -5.4070   -1.1550   -4.4920 hc        1 MOL      0.059676
     72 N7         -6.4010   -2.4810   -0.6230 n         1 MOL     -0.258392
     73 C23        -6.4900   -3.8420   -0.0630 c3        1 MOL     -0.273453
     74 C24        -5.2070   -4.6440   -0.1160 c         1 MOL      0.557724
     75 O13        -5.2040   -5.8640    0.0270 o         1 MOL     -0.569191
     76 H32        -6.2000   -1.7330    0.0260 hn        1 MOL      0.260632
     77 H33        -7.3780   -4.3210   -0.4850 h1        1 MOL      0.134189
     78 H34        -6.5590   -3.7220    1.0140 h1        1 MOL      0.134189
     79 N8         -4.0690   -3.9610   -0.3380 n         1 MOL     -0.188821
     80 C25        -2.7590   -4.6040   -0.6410 c3        1 MOL     -0.290273
     81 C26        -1.6010   -3.7220   -0.0740 c         1 MOL      0.749437
     82 O14        -1.7100   -2.5130    0.1740 o         1 MOL     -0.677742
     83 C27        -2.6650   -4.8470   -2.1340 c3        1 MOL      0.405984
     84 C28        -3.6410   -5.7480   -2.9100 c3        1 MOL     -0.356684
     85 O15        -2.4830   -3.6110   -2.8710 oh        1 MOL     -0.628789
     86 H35        -4.1500   -2.9510   -0.3050 hn        1 MOL      0.171389
     87 H36        -2.6590   -5.5750   -0.1650 h1        1 MOL      0.109371
     88 H37        -1.7310   -5.3920   -2.2920 h1        1 MOL     -0.003252
     89 H38        -3.0470   -2.9580   -2.4570 ho        1 MOL      0.405657
     90 H39        -4.6920   -5.4950   -2.7770 hc        1 MOL      0.102535
     91 H40        -3.4330   -5.8100   -3.9830 hc        1 MOL      0.102535
     92 H41        -3.5790   -6.7840   -2.5710 hc        1 MOL      0.102535
     93 N9         -0.3960   -4.3410   -0.0000 n         1 MOL     -0.569136
     94 C29         0.8960   -3.7770    0.5870 c3        1 MOL      0.024982
     95 C30         2.0670   -3.6910   -0.4830 c         1 MOL      0.520871
     96 O16         2.5950   -4.7370   -0.8950 o         1 MOL     -0.537259
     97 C31         1.2460   -4.5130    1.9260 c3        1 MOL      0.052291
     98 C32         0.0400   -4.2450    2.7960 c3        1 MOL     -0.021945
     99 C33         2.5420   -4.0510    2.5470 c3        1 MOL     -0.252750
    100 C34         0.2790   -4.5580    4.2880 c3        1 MOL     -0.433222
    101 H42        -0.3730   -5.3230   -0.2280 hn        1 MOL      0.301811
    102 H43         0.6610   -2.7370    0.8190 h1        1 MOL      0.085524
    103 H44         1.3050   -5.5600    1.6040 hc        1 MOL      0.040146
    104 H45        -0.8980   -4.6780    2.4390 hc        1 MOL      0.071734
    105 H46        -0.1870   -3.1800    2.8290 hc        1 MOL      0.071734
    106 H47         2.8580   -4.8490    3.2230 hc        1 MOL      0.058763
    107 H48         3.3990   -3.9590    1.8680 hc        1 MOL      0.058763
    108 H49         2.4490   -3.0670    3.0100 hc        1 MOL      0.058763
    109 H50         0.8670   -3.7280    4.6700 hc        1 MOL      0.117571
    110 H51        -0.5800   -4.6090    4.9700 hc        1 MOL      0.117571
    111 H52         0.9370   -5.4170    4.3360 hc        1 MOL      0.117571
    112 N10         2.3610   -2.4620   -0.9120 n         1 MOL     -0.349121
    113 C35         3.5240   -2.2080   -1.7950 c3        1 MOL     -0.010142
    114 C36         4.8640   -2.2850   -1.0850 c         1 MOL      0.324956
    115 O17         4.9580   -2.2750    0.1180 o         1 MOL     -0.336790
    116 C37         3.4030   -0.8290   -2.4560 c3        1 MOL      0.153906
    117 C38         2.2990   -0.8040   -3.4950 c3        1 MOL     -0.063948
    118 O18         3.2050    0.2120   -1.4760 oh        1 MOL     -0.574127
    119 H53         1.8420   -1.6880   -0.5080 hn        1 MOL      0.348277
    120 H54         3.4710   -2.9190   -2.6130 h1        1 MOL      0.090664
    121 H55         4.3000   -0.4860   -2.9740 h1        1 MOL      0.055083
    122 H56         2.3040    0.1070   -1.1700 ho        1 MOL      0.328174
    123 H57         2.7570   -1.2070   -4.3970 hc        1 MOL      0.016260
    124 H58         1.3960   -1.3230   -3.1900 hc        1 MOL      0.016260
    125 H59         2.0270    0.1980   -3.8470 hc        1 MOL      0.016260
    126 N11         5.9100   -2.0960   -1.9130 n         1 MOL     -0.206363
    127 C39         7.2890   -2.0020   -1.3990 c3        1 MOL     -0.071439
    128 C40         7.5460   -0.7830   -0.5100 c         1 MOL      0.230570
    129 O19         8.3190   -0.9470    0.4590 o         1 MOL     -0.420369
    130 C41         8.2590   -1.8590   -2.5890 c3        1 MOL      0.512330
    131 C42         9.7740   -2.1010   -2.2990 c3        1 MOL     -0.464043
    132 O20         7.9450   -2.7830   -3.5840 oh        1 MOL     -0.640622
    133 H60         5.7690   -2.1540   -2.9120 hn        1 MOL      0.187905
    134 H61         7.5620   -2.8930   -0.8290 h1        1 MOL      0.144592
    135 H62         8.0260   -0.9270   -3.1000 h1        1 MOL     -0.094244
    136 H63         8.3620   -2.4950   -4.3980 ho        1 MOL      0.402446
    137 H64        10.1700   -1.2280   -1.7780 hc        1 MOL      0.125379
    138 H65         9.7320   -2.9630   -1.6330 hc        1 MOL      0.125379
    139 H66        10.3600   -2.3440   -3.1870 hc        1 MOL      0.125379
    140 N12         6.8910    0.4110   -0.7220 n         1 MOL     -0.262023
    141 C43         6.8610    1.5570    0.1380 c3        1 MOL     -0.089102
    142 C44         6.1390    1.1690    1.4490 c         1 MOL      0.338942
    143 O21         6.6650    1.4430    2.5270 o         1 MOL     -0.482244
    144 C45         6.0760    2.6820   -0.5850 c3        1 MOL     -0.130311
    145 C46         6.6160    3.3200   -1.8140 c3        1 MOL      0.117276
    146 C47         5.8060    4.6300   -2.1200 c3        1 MOL     -0.017280
    147 C48         6.5460    5.4550   -3.2260 c3        1 MOL     -0.094138
    148 N13         7.7560    6.0510   -2.7400 n4        1 MOL     -0.228963
    149 H67         6.3220    0.4110   -1.5610 hn        1 MOL      0.229782
    150 H68         7.9200    1.7260    0.3070 h1        1 MOL      0.145746
    151 H69         5.9100    3.4680    0.1520 hc        1 MOL      0.055054
    152 H70         5.0520    2.3750   -0.8080 hc        1 MOL      0.055054
    153 H71         6.6320    2.5800   -2.6100 hc        1 MOL     -0.020954
    154 H72         7.6310    3.6000   -1.5320 hc        1 MOL     -0.020954
    155 H73         5.7430    5.2630   -1.2360 hc        1 MOL      0.057190
    156 H74         4.7660    4.4000   -2.3690 hc        1 MOL      0.057190
    157 H75         5.8500    6.2320   -3.5230 hx        1 MOL      0.105623
    158 H76         6.8260    4.7920   -4.0390 hx        1 MOL      0.105623
    159 H77         7.6590    6.7270   -1.9950 hn        1 MOL      0.296929
    160 H78         8.3470    5.2730   -2.4730 hn        1 MOL      0.296929
    161 H79         8.3190    6.3810   -3.5160 hn        1 MOL      0.296929
    162 N14         4.9750    0.4560    1.3980 n         1 MOL      0.007356
    163 C49         4.1400    0.2290    2.6080 c3        1 MOL     -0.250413
    164 C50         4.7220   -0.8480    3.5310 c         1 MOL      0.527561
    165 O22         4.6180   -0.7750    4.7760 o         1 MOL     -0.555360
    166 C51         2.6520   -0.0730    2.1280 c3        1 MOL      0.015488
    167 C52         1.9050    1.1010    1.5150 c3        1 MOL     -0.070313
    168 C53         0.6370    0.7180    0.7190 c         1 MOL      0.630453
    169 O23         0.6660   -0.2160   -0.1400 o         1 MOL     -0.665306
    170 O24        -0.4630    1.3140    0.9190 o         1 MOL     -0.665306
    171 H80         4.5710    0.3390    0.4790 hn        1 MOL      0.009954
    172 H81         4.1830    1.1660    3.1670 h1        1 MOL      0.137784
    173 H82         2.1810   -0.4890    3.0220 hc        1 MOL      0.071293
    174 H83         2.6650   -0.8380    1.3460 hc        1 MOL      0.071293
    175 H84         2.5930    1.6300    0.8570 hc        1 MOL      0.038776
    176 H85         1.6550    1.8760    2.2420 hc        1 MOL      0.038776
    177 N15         5.5520   -1.7460    3.0200 n         1 MOL     -0.118670
    178 C54         6.2860   -2.8230    3.7070 c3        1 MOL     -0.292324
    179 H86         6.4310   -2.5540    4.7530 h1        1 MOL      0.113806
    180 H87         5.7140   -3.7490    3.6470 h1        1 MOL      0.113806
    181 H88         7.2560   -2.9630    3.2310 h1        1 MOL      0.113806
    182 H89         5.3970   -2.0040    2.0430 hn        1 MOL      0.178101
    183 Ca1        -1.7790    0.2200   -1.0180 Ca        1 MOL      1.744193
    184 O25        -0.8830   -1.5350   -2.8260 oh        1 MOL     -0.849235
    185 H90        -1.3840   -2.3360   -2.9950 ho        1 MOL      0.394895
    186 H91        -0.7900   -1.1240   -3.6880 ho        1 MOL      0.394895
    187 O26        -0.1170    1.9110   -2.5310 oh        1 MOL     -0.849235
    188 H92        -0.7840    2.5810   -2.6480 ho        1 MOL      0.394895
    189 H93         0.6330    2.2230   -3.0470 ho        1 MOL      0.394895
@<TRIPOS>BOND
     1    1    2 1   
     2    1    4 1   
     3    1    5 1   
     4    1    6 1   
     5    2    3 2   
     6    2    7 1   
     7    7    8 1   
     8    7   15 1   
     9    8    9 1   
    10    8   11 1   
    11    8   16 1   
    12    9   10 2   
    13    9   19 1   
    14   11   12 1   
    15   11   17 1   
    16   11   18 1   
    17   12   13 1   
    18   12   14 1   
    19   19   20 1   
    20   19   28 1   
    21   20   21 1   
    22   20   23 1   
    23   20   29 1   
    24   21   22 2   
    25   21   41 1   
    26   23   24 1   
    27   23   30 1   
    28   23   31 1   
    29   24   25 1   
    30   24   32 1   
    31   24   33 1   
    32   25   26 1   
    33   25   34 1   
    34   25   35 1   
    35   26   27 1   
    36   26   36 1   
    37   26   37 1   
    38   27   38 1   
    39   27   39 1   
    40   27   40 1   
    41   41   42 1   
    42   41   49 1   
    43   42   43 1   
    44   42   45 1   
    45   42   50 1   
    46   43   44 2   
    47   43   53 1   
    48   45   46 1   
    49   45   51 1   
    50   45   52 1   
    51   46   47 1   
    52   46   48 1   
    53   53   54 1   
    54   53   57 1   
    55   54   55 1   
    56   54   58 1   
    57   54   59 1   
    58   55   56 2   
    59   55   60 1   
    60   60   61 1   
    61   60   68 1   
    62   61   62 1   
    63   61   64 1   
    64   61   69 1   
    65   62   63 2   
    66   62   72 1   
    67   64   65 1   
    68   64   70 1   
    69   64   71 1   
    70   65   66 1   
    71   65   67 1   
    72   72   73 1   
    73   72   76 1   
    74   73   74 1   
    75   73   77 1   
    76   73   78 1   
    77   74   75 2   
    78   74   79 1   
    79   79   80 1   
    80   79   86 1   
    81   80   81 1   
    82   80   83 1   
    83   80   87 1   
    84   81   82 2   
    85   81   93 1   
    86   83   84 1   
    87   83   85 1   
    88   83   88 1   
    89   84   90 1   
    90   84   91 1   
    91   84   92 1   
    92   85   89 1   
    93   93   94 1   
    94   93  101 1   
    95   94   95 1   
    96   94   97 1   
    97   94  102 1   
    98   95   96 2   
    99   95  112 1   
   100   97   98 1   
   101   97   99 1   
   102   97  103 1   
   103   98  100 1   
   104   98  104 1   
   105   98  105 1   
   106   99  106 1   
   107   99  107 1   
   108   99  108 1   
   109  100  109 1   
   110  100  110 1   
   111  100  111 1   
   112  112  113 1   
   113  112  119 1   
   114  113  114 1   
   115  113  116 1   
   116  113  120 1   
   117  114  115 2   
   118  114  126 1   
   119  116  117 1   
   120  116  118 1   
   121  116  121 1   
   122  117  123 1   
   123  117  124 1   
   124  117  125 1   
   125  118  122 1   
   126  126  127 1   
   127  126  133 1   
   128  127  128 1   
   129  127  130 1   
   130  127  134 1   
   131  128  129 2   
   132  128  140 1   
   133  130  131 1   
   134  130  132 1   
   135  130  135 1   
   136  131  137 1   
   137  131  138 1   
   138  131  139 1   
   139  132  136 1   
   140  140  141 1   
   141  140  149 1   
   142  141  142 1   
   143  141  144 1   
   144  141  150 1   
   145  142  143 2   
   146  142  162 1   
   147  144  145 1   
   148  144  151 1   
   149  144  152 1   
   150  145  146 1   
   151  145  153 1   
   152  145  154 1   
   153  146  147 1   
   154  146  155 1   
   155  146  156 1   
   156  147  148 1   
   157  147  157 1   
   158  147  158 1   
   159  148  159 1   
   160  148  160 1   
   161  148  161 1   
   162  162  163 1   
   163  162  171 1   
   164  163  164 1   
   165  163  166 1   
   166  163  172 1   
   167  164  165 2   
   168  164  177 1   
   169  166  167 1   
   170  166  173 1   
   171  166  174 1   
   172  167  168 1   
   173  167  175 1   
   174  167  176 1   
   175  168  169 1   
   176  168  170 1   
   177  177  178 1   
   178  177  182 1   
   179  178  179 1   
   180  178  180 1   
   181  178  181 1   
   182  184  185 1   
   183  184  186 1   
   184  187  188 1   
   185  187  189 1   
@<TRIPOS>SUBSTRUCTURE
     1 MOL         1 TEMP              0 ****  ****    0 ROOT
