@<TRIPOS>MOLECULE
MOL
  175   173     1     0     0
SMALL
resp


@<TRIPOS>ATOM
      1 C1          0.5000    4.2450    5.7440 c3        1 MOL     -0.333543
      2 C2          0.0100    4.0490    4.3330 c         1 MOL      0.736924
      3 O1          0.7740    4.2540    3.3690 o         1 MOL     -0.575938
      4 H1         -0.3520    4.4110    6.4040 hc        1 MOL      0.078770
      5 H2          1.0420    3.3570    6.0680 hc        1 MOL      0.078770
      6 H3          1.1630    5.1090    5.7820 hc        1 MOL      0.078770
      7 N1         -1.2040    3.4820    4.1830 n         1 MOL     -0.661637
      8 C3         -1.8800    3.2090    2.9150 c3        1 MOL      0.064731
      9 C4         -2.1290    4.5140    2.1130 c         1 MOL      0.639459
     10 O2         -2.4990    5.5170    2.7010 o         1 MOL     -0.599695
     11 C5         -3.2420    2.5200    3.1320 c3        1 MOL     -0.269250
     12 C6         -3.9990    2.1620    1.8140 c         1 MOL      0.645320
     13 O3         -5.2490    2.0250    1.8510 o         1 MOL     -0.626335
     14 O4         -3.2910    1.9330    0.8080 o         1 MOL     -0.626335
     15 H4         -1.7960    3.4620    5.0010 hn        1 MOL      0.345422
     16 H5         -1.2480    2.5660    2.3120 h1        1 MOL      0.130452
     17 H6         -3.8250    3.1140    3.8240 hc        1 MOL      0.051029
     18 H7         -3.0730    1.6280    3.7410 hc        1 MOL      0.051029
     19 N2         -1.9440    4.5290    0.8000 n         1 MOL     -0.366551
     20 C7         -2.1900    5.6880   -0.1300 c3        1 MOL      0.098776
     21 C8         -3.1440    5.3910   -1.3490 c         1 MOL      0.550578
     22 O5         -3.4530    6.3090   -2.0900 o         1 MOL     -0.553965
     23 C9         -0.7870    6.1630   -0.6280 c3        1 MOL     -0.228682
     24 H8         -1.4850    3.7340    0.3680 hn        1 MOL      0.189139
     25 H9         -2.6830    6.4220    0.5170 h1        1 MOL      0.048112
     26 H10        -0.9250    6.9660   -1.3610 hc        1 MOL      0.062621
     27 H11        -0.1420    6.4830    0.1980 hc        1 MOL      0.062621
     28 H12        -0.2320    5.3810   -1.1340 hc        1 MOL      0.062621
     29 N3         -3.6170    4.0940   -1.5430 n         1 MOL     -0.586158
     30 C10        -4.4270    3.6920   -2.7200 c3        1 MOL      0.505576
     31 C11        -5.7390    3.1590   -2.3160 c         1 MOL      0.199156
     32 O6         -6.7800    3.5080   -2.8700 o         1 MOL     -0.543796
     33 C12        -3.6050    2.6960   -3.5280 c3        1 MOL     -0.206012
     34 C13        -3.0060    1.4910   -2.7300 c         1 MOL      0.742296
     35 O7         -1.8110    1.1820   -2.9100 o         1 MOL     -0.724609
     36 O8         -3.6310    0.8770   -1.8930 o         1 MOL     -0.724609
     37 H13        -3.4050    3.3170   -0.9420 hn        1 MOL      0.343717
     38 H14        -4.6470    4.4930   -3.4270 h1        1 MOL     -0.025134
     39 H15        -2.7640    3.2620   -3.9250 hc        1 MOL      0.025831
     40 H16        -4.1940    2.3160   -4.3590 hc        1 MOL      0.025831
     41 N4         -5.8120    2.2660   -1.2710 n         1 MOL      0.125037
     42 C14        -7.0360    1.6930   -0.7700 c3        1 MOL     -0.307510
     43 C15        -7.2810    0.2300   -1.1360 c         1 MOL      0.561476
     44 O9         -8.3940   -0.2870   -0.9730 o         1 MOL     -0.610771
     45 H17        -4.9280    2.0390   -0.8240 hn        1 MOL     -0.096501
     46 H18        -7.8840    2.2150   -1.2090 h1        1 MOL      0.126710
     47 H19        -7.0120    1.8500    0.3060 h1        1 MOL      0.126710
     48 N5         -6.2300   -0.4140   -1.6190 n         1 MOL     -0.183824
     49 C16        -6.2300   -1.8400   -2.0720 c3        1 MOL     -0.265354
     50 C17        -6.3780   -2.9600   -1.0180 c         1 MOL      0.558185
     51 O10        -6.4510   -4.1550   -1.4540 o         1 MOL     -0.567528
     52 C18        -5.0470   -2.0170   -3.0640 c3        1 MOL      0.068493
     53 C19        -3.6710   -2.1590   -2.5160 c         1 MOL      0.313566
     54 N6         -2.7400   -2.0730   -3.4170 n         1 MOL     -0.577719
     55 O11        -3.5010   -2.1270   -1.3240 o         1 MOL     -0.026922
     56 H20        -5.3390    0.0480   -1.6880 hn        1 MOL      0.101420
     57 H21        -7.0900   -2.1150   -2.6960 h1        1 MOL      0.130879
     58 H22        -5.1410   -1.3250   -3.9040 hc        1 MOL      0.024790
     59 H23        -5.2610   -2.8920   -3.6720 hc        1 MOL      0.024790
     60 H24        -2.9590   -2.1240   -4.3950 hn        1 MOL      0.304449
     61 H25        -1.7560   -2.0220   -3.2010 hn        1 MOL      0.304449
     62 N7         -6.4370   -2.6430    0.2580 n         1 MOL     -0.361713
     63 C20        -6.3530   -3.6590    1.3740 c3        1 MOL      0.009349
     64 C21        -4.9870   -4.3670    1.6450 c         1 MOL      0.557804
     65 O12        -5.0390   -5.3170    2.4110 o         1 MOL     -0.601297
     66 H26        -6.1980   -1.6820    0.4450 hn        1 MOL      0.265333
     67 H27        -7.1090   -4.4410    1.3040 h1        1 MOL      0.059621
     68 H28        -6.5930   -3.1640    2.3080 h1        1 MOL      0.059621
     69 N8         -3.8580   -3.9730    1.0670 n         1 MOL     -0.267469
     70 C22        -2.5430   -4.6790    1.1760 c3        1 MOL     -0.046340
     71 C23        -1.4770   -3.6820    1.1960 c         1 MOL      0.709627
     72 O13        -1.6010   -2.5790    0.6640 o         1 MOL     -0.625915
     73 C24        -2.2670   -5.5630   -0.0590 c3        1 MOL      0.527321
     74 C25        -2.9950   -6.8790    0.1440 c3        1 MOL     -0.464562
     75 O14        -2.7610   -5.0200   -1.3100 oh        1 MOL     -0.534675
     76 H29        -3.9250   -3.2100    0.4070 hn        1 MOL     -0.031236
     77 H30        -2.4490   -5.3390    2.0420 h1        1 MOL      0.075557
     78 H31        -1.2280   -5.8820   -0.0960 h1        1 MOL     -0.037110
     79 H32        -2.5030   -4.0980   -1.2510 ho        1 MOL      0.202400
     80 H33        -4.0720   -6.8870   -0.0270 hc        1 MOL      0.111602
     81 H34        -2.6290   -7.5390   -0.6460 hc        1 MOL      0.111602
     82 H35        -2.6480   -7.3060    1.0790 hc        1 MOL      0.111602
     83 N9         -0.3650   -4.0460    1.8970 n         1 MOL     -0.844069
     84 C26         0.8270   -3.1750    2.0100 c3        1 MOL      0.275865
     85 C27         1.5880   -3.2260    0.6860 c         1 MOL      0.577528
     86 O15         2.0810   -4.2590    0.2680 o         1 MOL     -0.612864
     87 C28         1.7520   -3.4210    3.1300 c3        1 MOL      0.112928
     88 C29         1.1930   -4.0070    4.4060 c3        1 MOL      0.434939
     89 C30         2.7320   -2.1790    3.4020 c3        1 MOL     -0.361614
     90 C31         2.2500   -4.5170    5.3150 c3        1 MOL     -0.434175
     91 H36        -0.2950   -5.0270    2.1170 hn        1 MOL      0.351792
     92 H37         0.4630   -2.1420    2.0150 h1        1 MOL     -0.041385
     93 H38         2.3930   -4.2070    2.7230 hc        1 MOL     -0.050001
     94 H39         0.5940   -4.8810    4.1930 hc        1 MOL     -0.102421
     95 H40         0.5380   -3.2560    4.8630 hc        1 MOL     -0.102421
     96 H41         3.0560   -1.8490    2.4220 hc        1 MOL      0.067668
     97 H42         2.1440   -1.3620    3.8320 hc        1 MOL      0.067668
     98 H43         3.5580   -2.3450    4.0940 hc        1 MOL      0.067668
     99 H44         2.6120   -3.6430    5.8740 hc        1 MOL      0.090744
    100 H45         1.7140   -5.2220    5.9570 hc        1 MOL      0.090744
    101 H46         3.1380   -4.8850    4.8030 hc        1 MOL      0.090744
    102 N10         1.6670   -2.0910   -0.0010 n         1 MOL     -0.282806
    103 C32         2.4910   -1.9350   -1.2370 c3        1 MOL      0.069540
    104 C33         3.8990   -1.4170   -0.9210 c         1 MOL      0.433715
    105 O16         4.1340   -0.7210    0.0640 o         1 MOL     -0.288876
    106 C34         1.7570   -1.0020   -2.3080 c3        1 MOL     -0.286103
    107 C35         0.3450   -1.5040   -2.6840 c         1 MOL      0.695196
    108 O17         0.2450   -1.9660   -3.8500 o         1 MOL     -0.652577
    109 O18        -0.5830   -1.5330   -1.8110 o         1 MOL     -0.652577
    110 H47         1.1450   -1.3090    0.3780 hn        1 MOL      0.168821
    111 H48         2.6450   -2.8950   -1.7360 h1        1 MOL      0.078724
    112 H49         2.3320   -1.0660   -3.2260 hc        1 MOL      0.089066
    113 H50         1.6960   -0.0100   -1.8680 hc        1 MOL      0.089066
    114 N11         4.8270   -1.6620   -1.8300 n         1 MOL     -0.754967
    115 C36         6.2750   -1.3360   -1.4920 c3        1 MOL      0.540075
    116 C37         6.5080    0.1970   -1.1680 c         1 MOL      0.227955
    117 O19         7.2090    0.4220   -0.1830 o         1 MOL     -0.446956
    118 C38         7.1540   -1.9720   -2.5110 c3        1 MOL     -0.299418
    119 C39         8.6460   -1.7990   -2.1300 ca        1 MOL      0.158866
    120 C40         9.4680   -1.0150   -2.9550 ca        1 MOL     -0.238215
    121 C41         9.1750   -2.3440   -0.9440 ca        1 MOL     -0.238215
    122 C42        10.7920   -0.8620   -2.6460 ca        1 MOL     -0.025224
    123 C43        10.5040   -2.0850   -0.5530 ca        1 MOL     -0.025224
    124 C44        11.3250   -1.5020   -1.5000 ca        1 MOL     -0.190168
    125 H51         4.5620   -2.0810   -2.7060 hn        1 MOL      0.359990
    126 H52         6.4480   -1.9300   -0.6000 h1        1 MOL      0.038752
    127 H53         6.9920   -1.5560   -3.5120 hc        1 MOL      0.080933
    128 H54         6.9270   -3.0270   -2.6550 hc        1 MOL      0.080933
    129 H55         9.0330   -0.5400   -3.8220 ha        1 MOL      0.122312
    130 H56         8.5030   -2.9030   -0.3120 ha        1 MOL      0.122312
    131 H57        11.3940   -0.2110   -3.2640 ha        1 MOL      0.100832
    132 H58        10.8020   -2.3520    0.4560 ha        1 MOL      0.100832
    133 H59        12.3680   -1.3000   -1.3050 ha        1 MOL      0.103722
    134 N12         5.7770    1.1500   -1.8010 n         1 MOL      0.002628
    135 C45         6.0730    2.5690   -1.5360 c3        1 MOL     -0.062920
    136 C46         5.5280    3.0100   -0.1660 c         1 MOL      0.437756
    137 O20         6.0570    3.8660    0.5160 o         1 MOL     -0.511972
    138 C47         5.4770    3.3170   -2.7110 c3        1 MOL     -0.069256
    139 C48         5.4640    2.2540   -3.8630 c3        1 MOL      0.127803
    140 C49         5.0810    1.0020   -3.1310 c3        1 MOL     -0.072590
    141 H60         7.1300    2.8260   -1.4280 h1        1 MOL      0.073118
    142 H61         4.4370    3.6220   -2.5480 hc        1 MOL      0.041768
    143 H62         5.9720    4.2380   -3.0350 hc        1 MOL      0.041768
    144 H63         4.8260    2.4920   -4.7110 hc        1 MOL     -0.019402
    145 H64         6.4860    2.1770   -4.2530 hc        1 MOL     -0.019402
    146 H65         4.0020    0.9030   -3.0350 h1        1 MOL      0.042365
    147 H66         5.5680    0.2720   -3.7730 h1        1 MOL      0.042365
    148 N13         4.4850    2.2980    0.2850 n         1 MOL     -0.310203
    149 C50         3.9790    2.3350    1.6540 c3        1 MOL      0.001749
    150 C51         5.0040    1.6390    2.6130 c         1 MOL      0.435252
    151 O21         5.2170    2.1640    3.7040 o         1 MOL     -0.574460
    152 C52         2.6270    1.6710    1.7860 c3        1 MOL     -0.034450
    153 C53         1.7700    2.0480    0.6000 c3        1 MOL     -0.056007
    154 C54         0.3670    1.5870    0.5950 c         1 MOL      0.403719
    155 O22        -0.5780    2.1500   -0.0470 o         1 MOL     -0.576465
    156 O23         0.1610    0.4110    0.9640 o         1 MOL     -0.576465
    157 H67         4.2330    1.5050   -0.2960 hn        1 MOL      0.159570
    158 H68         3.8340    3.3670    1.9690 h1        1 MOL      0.106368
    159 H69         2.2170    2.0350    2.7260 hc        1 MOL      0.030834
    160 H70         2.8950    0.6320    1.6410 hc        1 MOL      0.030834
    161 H71         2.1820    1.5820   -0.3020 hc        1 MOL      0.066878
    162 H72         1.7980    3.1160    0.3930 hc        1 MOL      0.066878
    163 N14         5.6020    0.4990    2.2790 n         1 MOL      0.038065
    164 C55         6.4750   -0.3410    3.0920 c3        1 MOL     -0.277034
    165 H73         7.4900   -0.2990    2.6960 h1        1 MOL      0.098940
    166 H74         6.4730    0.0200    4.1200 h1        1 MOL      0.098940
    167 H75         6.1180   -1.3700    3.0660 h1        1 MOL      0.098940
    168 H76         5.4830    0.2040    1.3150 hn        1 MOL     -0.008170
    169 Ca1        -2.0550   -0.1700   -0.1940 Ca        1 MOL      1.618657
    170 O24        -1.7010   -0.3550    2.6590 oh        1 MOL     -0.693031
    171 H77        -0.8340    0.0020    2.4840 ho        1 MOL      0.349690
    172 H78        -1.7400   -0.4140    3.6210 ho        1 MOL      0.349690
    173 O25        -4.5990   -0.6890    1.2660 oh        1 MOL     -0.693031
    174 H79        -4.6180    0.2190    1.5740 ho        1 MOL      0.349690
    175 H80        -4.7970   -1.2110    2.0380 ho        1 MOL      0.349690
@<TRIPOS>BOND
     1    1    2 1   
     2    1    4 1   
     3    1    5 1   
     4    1    6 1   
     5    2    3 2   
     6    2    7 1   
     7    7    8 1   
     8    7   15 1   
     9    8    9 1   
    10    8   11 1   
    11    8   16 1   
    12    9   10 2   
    13    9   19 1   
    14   11   12 1   
    15   11   17 1   
    16   11   18 1   
    17   12   13 1   
    18   12   14 1   
    19   19   20 1   
    20   19   24 1   
    21   20   21 1   
    22   20   23 1   
    23   20   25 1   
    24   21   22 2   
    25   21   29 1   
    26   23   26 1   
    27   23   27 1   
    28   23   28 1   
    29   29   30 1   
    30   29   37 1   
    31   30   31 1   
    32   30   33 1   
    33   30   38 1   
    34   31   32 2   
    35   31   41 1   
    36   33   34 1   
    37   33   39 1   
    38   33   40 1   
    39   34   35 1   
    40   34   36 1   
    41   41   42 1   
    42   41   45 1   
    43   42   43 1   
    44   42   46 1   
    45   42   47 1   
    46   43   44 2   
    47   43   48 1   
    48   48   49 1   
    49   48   56 1   
    50   49   50 1   
    51   49   52 1   
    52   49   57 1   
    53   50   51 2   
    54   50   62 1   
    55   52   53 1   
    56   52   58 1   
    57   52   59 1   
    58   53   54 1   
    59   53   55 2   
    60   54   60 1   
    61   54   61 1   
    62   62   63 1   
    63   62   66 1   
    64   63   64 1   
    65   63   67 1   
    66   63   68 1   
    67   64   65 2   
    68   64   69 1   
    69   69   70 1   
    70   69   76 1   
    71   70   71 1   
    72   70   73 1   
    73   70   77 1   
    74   71   72 2   
    75   71   83 1   
    76   73   74 1   
    77   73   75 1   
    78   73   78 1   
    79   74   80 1   
    80   74   81 1   
    81   74   82 1   
    82   75   79 1   
    83   83   84 1   
    84   83   91 1   
    85   84   85 1   
    86   84   87 1   
    87   84   92 1   
    88   85   86 2   
    89   85  102 1   
    90   87   88 1   
    91   87   89 1   
    92   87   93 1   
    93   88   90 1   
    94   88   94 1   
    95   88   95 1   
    96   89   96 1   
    97   89   97 1   
    98   89   98 1   
    99   90   99 1   
   100   90  100 1   
   101   90  101 1   
   102  102  103 1   
   103  102  110 1   
   104  103  104 1   
   105  103  106 1   
   106  103  111 1   
   107  104  105 2   
   108  104  114 1   
   109  106  107 1   
   110  106  112 1   
   111  106  113 1   
   112  107  108 1   
   113  107  109 1   
   114  114  115 1   
   115  114  125 1   
   116  115  116 1   
   117  115  118 1   
   118  115  126 1   
   119  116  117 2   
   120  116  134 1   
   121  118  119 1   
   122  118  127 1   
   123  118  128 1   
   124  119  120 ar  
   125  119  121 ar  
   126  120  122 ar  
   127  120  129 1   
   128  121  123 ar  
   129  121  130 1   
   130  122  124 ar  
   131  122  131 1   
   132  123  124 ar  
   133  123  132 1   
   134  124  133 1   
   135  134  135 1   
   136  134  140 1   
   137  135  136 1   
   138  135  138 1   
   139  135  141 1   
   140  136  137 2   
   141  136  148 1   
   142  138  139 1   
   143  138  142 1   
   144  138  143 1   
   145  139  140 1   
   146  139  144 1   
   147  139  145 1   
   148  140  146 1   
   149  140  147 1   
   150  148  149 1   
   151  148  157 1   
   152  149  150 1   
   153  149  152 1   
   154  149  158 1   
   155  150  151 2   
   156  150  163 1   
   157  152  153 1   
   158  152  159 1   
   159  152  160 1   
   160  153  154 1   
   161  153  161 1   
   162  153  162 1   
   163  154  155 1   
   164  154  156 1   
   165  163  164 1   
   166  163  168 1   
   167  164  165 1   
   168  164  166 1   
   169  164  167 1   
   170  170  171 1   
   171  170  172 1   
   172  173  174 1   
   173  173  175 1   
@<TRIPOS>SUBSTRUCTURE
     1 MOL         1 TEMP              0 ****  ****    0 ROOT
