@<TRIPOS>MOLECULE
MOL
  189   185     1     0     0
SMALL
resp


@<TRIPOS>ATOM
      1 C1          0.2070   -1.7710    6.0750 c3        1 MOL     -0.543048
      2 C2          0.7340   -1.7970    4.6300 c         1 MOL      0.613671
      3 O1          0.5100   -0.9150    3.8430 o         1 MOL     -0.489586
      4 H1         -0.8260   -1.4220    6.0780 hc        1 MOL      0.148448
      5 H2          0.2510   -2.7750    6.4970 hc        1 MOL      0.148448
      6 H3          0.8190   -1.0970    6.6740 hc        1 MOL      0.148448
      7 N1          1.5340   -2.8320    4.2860 n         1 MOL     -0.500022
      8 C3          2.2690   -2.9210    3.0100 c3        1 MOL      0.219275
      9 C4          2.1960   -4.2630    2.4500 c         1 MOL      0.353767
     10 O2          2.5260   -5.2020    3.1480 o         1 MOL     -0.559262
     11 C5          3.7750   -2.5420    3.2230 c3        1 MOL     -0.219103
     12 C6          4.5640   -2.6330    1.9680 c         1 MOL      0.774388
     13 O3          5.5680   -3.3750    1.9920 o         1 MOL     -0.688890
     14 O4          4.1930   -2.1070    0.9430 o         1 MOL     -0.688890
     15 H4          1.5300   -3.6690    4.8470 hn        1 MOL      0.291675
     16 H5          1.8260   -2.1950    2.3180 h1        1 MOL     -0.089398
     17 H6          4.1980   -3.2030    3.9670 hc        1 MOL      0.015982
     18 H7          3.8910   -1.5470    3.6470 hc        1 MOL      0.015982
     19 N2          1.9720   -4.3780    1.1450 n         1 MOL      0.008585
     20 C7          2.2350   -5.5760    0.3320 c3        1 MOL     -0.206150
     21 C8          3.1120   -5.3740   -0.9700 c         1 MOL      0.481737
     22 O5          3.1530   -6.2940   -1.8130 o         1 MOL     -0.571604
     23 C9          0.9210   -6.3220    0.0900 c3        1 MOL      0.245930
     24 C10         0.0770   -5.4700   -0.9060 c3        1 MOL     -0.099646
     25 C11         0.2200   -6.5120    1.4430 c3        1 MOL     -0.175412
     26 C12        -1.3900   -5.9420   -1.0800 c3        1 MOL     -0.179256
     27 H8          1.7690   -3.5060    0.6760 hn        1 MOL      0.160921
     28 H9          2.7870   -6.2970    0.9430 h1        1 MOL      0.121497
     29 H10         1.1360   -7.3120   -0.3140 hc        1 MOL     -0.031587
     30 H11         0.6020   -5.3770   -1.8530 hc        1 MOL      0.075212
     31 H12         0.0250   -4.4650   -0.4850 hc        1 MOL      0.075212
     32 H13        -0.6190   -7.2020    1.3090 hc        1 MOL      0.022311
     33 H14         0.9740   -7.0240    2.0320 hc        1 MOL      0.022311
     34 H15        -0.2170   -5.5490    1.7110 hc        1 MOL      0.022311
     35 H16        -1.8880   -5.0690   -1.5130 hc        1 MOL      0.035250
     36 H17        -1.4990   -6.8300   -1.6990 hc        1 MOL      0.035250
     37 H18        -1.8500   -6.0560   -0.0930 hc        1 MOL      0.035250
     38 N3          3.8820   -4.2970   -1.1220 n         1 MOL     -0.281830
     39 C13         4.5850   -3.9940   -2.3310 c3        1 MOL     -0.059033
     40 C14         5.9280   -3.1790   -2.2450 c         1 MOL      0.382488
     41 O6          6.7010   -3.2740   -3.1890 o         1 MOL     -0.526520
     42 C15         3.6580   -3.3250   -3.3080 c3        1 MOL     -0.185043
     43 C16         3.1830   -1.9350   -2.9370 c         1 MOL      0.750205
     44 O7          3.5000   -1.3600   -1.9140 o         1 MOL     -0.727612
     45 O8          2.1870   -1.5370   -3.5710 o         1 MOL     -0.727612
     46 H19         3.7400   -3.4580   -0.5750 hn        1 MOL      0.185959
     47 H20         4.8760   -4.9590   -2.7650 h1        1 MOL      0.110864
     48 H21         2.7630   -3.9260   -3.4950 hc        1 MOL      0.064169
     49 H22         4.1020   -3.2440   -4.3030 hc        1 MOL      0.064169
     50 N4          6.2300   -2.5530   -1.1070 n         1 MOL     -0.046437
     51 C17         7.4650   -1.9550   -0.8310 c3        1 MOL     -0.108584
     52 C18         7.6970   -0.5130   -1.3490 c         1 MOL      0.406406
     53 O9          8.7820   -0.2020   -1.8400 o         1 MOL     -0.564260
     54 H23         5.5070   -2.5520   -0.4140 hn        1 MOL      0.081228
     55 H24         8.3120   -2.5360   -1.1940 h1        1 MOL      0.069653
     56 H25         7.5100   -1.8310    0.2530 h1        1 MOL      0.069653
     57 N5          6.6820    0.3910   -1.5820 n         1 MOL     -0.067062
     58 C19         6.8110    1.6970   -2.2130 c3        1 MOL     -0.036422
     59 C20         6.9720    2.9500   -1.2410 c         1 MOL      0.273623
     60 O10         7.5500    3.9810   -1.6790 o         1 MOL     -0.528650
     61 C21         5.5990    2.0040   -3.0840 c3        1 MOL     -0.100947
     62 C22         4.1680    2.0290   -2.3780 c         1 MOL      0.611514
     63 O11         4.0390    1.5850   -1.2030 o         1 MOL     -0.661593
     64 O12         3.1840    2.4250   -3.0200 o         1 MOL     -0.661593
     65 H26         5.7550   -0.0180   -1.5580 hn        1 MOL      0.127153
     66 H27         7.6500    1.7340   -2.9020 h1        1 MOL      0.104674
     67 H28         5.6090    1.3330   -3.9420 hc        1 MOL      0.045388
     68 H29         5.7540    2.9720   -3.5480 hc        1 MOL      0.045388
     69 N6          6.4170    2.8560   -0.0460 n         1 MOL      0.058880
     70 C23         6.5550    3.8710    1.0000 c3        1 MOL     -0.370994
     71 C24         5.2050    4.5660    1.4090 c         1 MOL      0.528637
     72 O13         5.0680    5.4390    2.2540 o         1 MOL     -0.610865
     73 H30         6.0850    1.9540    0.2690 hn        1 MOL      0.020404
     74 H31         7.0860    4.7160    0.5590 h1        1 MOL      0.146123
     75 H32         7.0960    3.3810    1.8080 h1        1 MOL      0.146123
     76 N7          4.1600    4.1680    0.7570 n         1 MOL     -0.216372
     77 C25         2.7600    4.7640    0.8750 c3        1 MOL      0.066366
     78 C26         1.7560    3.6710    1.2600 c         1 MOL      0.363078
     79 O14         1.8660    2.5740    0.6800 o         1 MOL     -0.537277
     80 C27         2.3540    5.5890   -0.3680 c3        1 MOL     -0.060693
     81 C28         3.5200    6.3140   -1.0710 c3        1 MOL     -0.339098
     82 C29         3.0020    7.3850   -1.9870 c         1 MOL      0.655739
     83 N8          2.6200    7.0310   -3.1800 n         1 MOL     -0.768953
     84 O15         2.8330    8.5630   -1.6500 o         1 MOL     -0.598725
     85 H33         4.3360    3.4320    0.0840 hn        1 MOL      0.176514
     86 H34         2.8000    5.5230    1.6620 h1        1 MOL      0.048256
     87 H35         1.5590    6.2760   -0.0750 hc        1 MOL      0.077476
     88 H36         1.9160    4.9430   -1.1420 hc        1 MOL      0.077476
     89 H37         4.2240    5.6420   -1.5530 hc        1 MOL      0.135718
     90 H38         4.1850    6.7050   -0.3030 hc        1 MOL      0.135718
     91 H39         2.6810    6.0760   -3.5150 hn        1 MOL      0.359298
     92 H40         2.0680    7.7150   -3.6790 hn        1 MOL      0.359298
     93 N9          0.8060    3.9940    2.0800 n         1 MOL     -0.406093
     94 C30        -0.2870    3.0580    2.4290 c3        1 MOL     -0.009342
     95 C31        -1.2710    3.2430    1.2870 c         1 MOL      0.552200
     96 O16        -1.7130    4.3520    0.9430 o         1 MOL     -0.610888
     97 C32        -0.9420    3.3520    3.7430 c3        1 MOL     -0.035318
     98 C33        -2.2780    2.5990    3.9900 c3        1 MOL     -0.007749
     99 C34         0.0590    2.8160    4.8270 c3        1 MOL     -0.007749
    100 H41         0.7980    4.9300    2.4770 hn        1 MOL      0.287615
    101 H42         0.1550    2.0530    2.4850 h1        1 MOL      0.273153
    102 H43        -1.1420    4.4150    3.9150 hc        1 MOL      0.045301
    103 H44        -2.9850    2.9640    3.2470 hc        1 MOL     -0.012462
    104 H45        -2.0840    1.5420    3.8610 hc        1 MOL     -0.012462
    105 H46        -2.7110    2.8440    4.9560 hc        1 MOL     -0.012462
    106 H47        -0.2920    2.7760    5.8550 hc        1 MOL     -0.012462
    107 H48         0.4950    1.8540    4.5300 hc        1 MOL     -0.012462
    108 H49         0.9420    3.4560    4.8800 hc        1 MOL     -0.012462
    109 N10        -1.6150    2.1290    0.6270 n         1 MOL     -0.078483
    110 C35        -2.4980    2.0210   -0.4610 c3        1 MOL      0.025687
    111 C36        -4.0030    1.7870   -0.0270 c         1 MOL      0.313736
    112 O17        -4.2290    1.2020    0.9780 o         1 MOL     -0.315640
    113 C37        -2.0460    0.8900   -1.3990 c3        1 MOL      0.057674
    114 C38        -2.8080    0.8250   -2.7440 c         1 MOL      0.573424
    115 N11        -2.2110    0.1830   -3.7520 n         1 MOL     -0.826671
    116 O18        -3.9800    0.9070   -2.7860 o         1 MOL     -0.564801
    117 H50        -1.1910    1.2560    0.9130 hn        1 MOL     -0.004458
    118 H51        -2.5010    2.9410   -1.0340 h1        1 MOL      0.031981
    119 H52        -2.1010   -0.0620   -0.8600 hc        1 MOL      0.013644
    120 H53        -0.9920    1.0780   -1.6230 hc        1 MOL      0.013644
    121 H54        -1.3070   -0.2290   -3.6110 hn        1 MOL      0.412826
    122 H55        -2.9220   -0.0710   -4.4310 hn        1 MOL      0.412826
    123 N12        -4.9840    2.2950   -0.7510 n         1 MOL     -0.431560
    124 C39        -6.3830    2.0500   -0.4550 c3        1 MOL      0.110873
    125 C40        -6.6800    0.5230   -0.2130 c         1 MOL      0.516248
    126 O19        -7.4140    0.1420    0.6910 o         1 MOL     -0.527105
    127 C41        -7.2990    2.6030   -1.5130 c3        1 MOL     -0.079560
    128 C42        -8.7610    2.2520   -1.3520 ca        1 MOL     -0.028821
    129 C43        -9.4700    2.8910   -0.3620 ca        1 MOL     -0.097391
    130 C44        -9.3430    1.2210   -2.0600 ca        1 MOL     -0.097391
    131 C45       -10.7800    2.6600   -0.1530 ca        1 MOL     -0.273627
    132 C46       -10.6760    0.9160   -1.7670 ca        1 MOL     -0.273627
    133 C47       -11.4130    1.6180   -0.8730 ca        1 MOL      0.349628
    134 O20       -12.7400    1.3350   -0.5870 oh        1 MOL     -0.518424
    135 H56        -4.8560    2.7220   -1.6580 hn        1 MOL      0.271758
    136 H57        -6.5960    2.6290    0.4420 h1        1 MOL      0.043903
    137 H58        -7.0230    2.1870   -2.4860 hc        1 MOL      0.036581
    138 H59        -7.1470    3.6700   -1.6620 hc        1 MOL      0.036581
    139 H60        -8.9920    3.6340    0.2580 ha        1 MOL      0.116051
    140 H61        -8.7400    0.6120   -2.7280 ha        1 MOL      0.116051
    141 H62       -11.3410    3.1920    0.5980 ha        1 MOL      0.138492
    142 H63       -11.2150    0.0290   -2.0830 ha        1 MOL      0.138492
    143 H64       -12.9660    0.5640   -1.1080 ho        1 MOL      0.354058
    144 N13        -6.0280   -0.2640   -1.0140 n         1 MOL     -0.207544
    145 C48        -6.1170   -1.7230   -0.8550 c3        1 MOL     -0.005502
    146 C49        -5.4230   -2.2940    0.4290 c         1 MOL      0.341363
    147 O21        -5.9690   -3.1140    1.1890 o         1 MOL     -0.535516
    148 C50        -5.4690   -2.4020   -2.0560 c3        1 MOL      0.115257
    149 C51        -6.2760   -2.0630   -3.2780 c3        1 MOL     -0.185888
    150 C52        -5.9560   -3.0650   -4.3290 c         1 MOL      0.652616
    151 O22        -6.0780   -4.3120   -4.0860 o         1 MOL     -0.723516
    152 O23        -5.4780   -2.6720   -5.4450 o         1 MOL     -0.723516
    153 H65        -5.5110    0.1520   -1.7770 hn        1 MOL      0.290374
    154 H66        -7.1900   -1.9220   -0.8210 h1        1 MOL      0.065085
    155 H67        -5.5060   -3.4770   -1.8820 hc        1 MOL      0.020944
    156 H68        -4.4690   -1.9940   -2.2030 hc        1 MOL      0.020944
    157 H69        -6.0120   -1.0320   -3.5090 hc        1 MOL     -0.012770
    158 H70        -7.3300   -2.1930   -3.0240 hc        1 MOL     -0.012770
    159 N14        -4.3760   -1.6400    0.7960 n         1 MOL     -0.056709
    160 C53        -3.5930   -1.7550    2.0440 c3        1 MOL     -0.210575
    161 C54        -4.0780   -1.0330    3.2990 c         1 MOL      0.526925
    162 O24        -3.7230   -1.4010    4.3770 o         1 MOL     -0.581501
    163 C55        -2.1100   -1.2710    1.7580 c3        1 MOL     -0.119514
    164 C56        -1.3370   -2.1020    0.6910 c3        1 MOL     -0.122182
    165 C57         0.0440   -1.4190    0.4340 c         1 MOL      0.524679
    166 O25         1.0490   -2.0590   -0.0270 o         1 MOL     -0.608978
    167 O26         0.1490   -0.2230    0.7770 o         1 MOL     -0.608978
    168 H71        -4.1470   -0.8930    0.1560 hn        1 MOL     -0.034698
    169 H72        -3.4720   -2.7840    2.3710 h1        1 MOL      0.143242
    170 H73        -1.6260   -1.2970    2.7280 hc        1 MOL      0.105012
    171 H74        -2.1550   -0.2080    1.5370 hc        1 MOL      0.105012
    172 H75        -1.9160   -2.1230   -0.2340 hc        1 MOL      0.075925
    173 H76        -1.0920   -3.1000    1.0360 hc        1 MOL      0.075925
    174 N15        -5.0790   -0.2080    3.1700 n         1 MOL     -0.107301
    175 C58        -5.7150    0.6420    4.2130 c3        1 MOL     -0.175018
    176 H77        -6.7370    0.8760    3.9160 h1        1 MOL      0.079933
    177 H78        -5.7260    0.1060    5.1610 h1        1 MOL      0.079933
    178 H79        -5.1480    1.5670    4.3240 h1        1 MOL      0.079933
    179 H80        -5.2300    0.0800    2.2190 hn        1 MOL      0.066830
    180 Ca1         2.7570   -0.0460    0.1760 Ca        1 MOL      1.744446
    181 O27         2.3280    0.7250    2.7460 oh        1 MOL     -0.830111
    182 H81         1.6350    0.2100    3.1500 ho        1 MOL      0.407334
    183 H82         3.0230    0.7540    3.4130 ho        1 MOL      0.407334
    184 O28         5.1750    0.5970    1.6430 oh        1 MOL     -0.830111
    185 H83         5.0150    0.5630    2.5880 ho        1 MOL      0.407334
    186 H84         6.1300    0.6540    1.5670 ho        1 MOL      0.407334
    187 O29         1.3830    0.6340   -2.0690 oh        1 MOL     -0.830111
    188 H85         1.9740    1.3770   -2.1670 ho        1 MOL      0.407334
    189 H86         1.7380   -0.0450   -2.6390 ho        1 MOL      0.407334
@<TRIPOS>BOND
     1    1    2 1   
     2    1    4 1   
     3    1    5 1   
     4    1    6 1   
     5    2    3 2   
     6    2    7 1   
     7    7    8 1   
     8    7   15 1   
     9    8    9 1   
    10    8   11 1   
    11    8   16 1   
    12    9   10 2   
    13    9   19 1   
    14   11   12 1   
    15   11   17 1   
    16   11   18 1   
    17   12   13 1   
    18   12   14 1   
    19   19   20 1   
    20   19   27 1   
    21   20   21 1   
    22   20   23 1   
    23   20   28 1   
    24   21   22 2   
    25   21   38 1   
    26   23   24 1   
    27   23   25 1   
    28   23   29 1   
    29   24   26 1   
    30   24   30 1   
    31   24   31 1   
    32   25   32 1   
    33   25   33 1   
    34   25   34 1   
    35   26   35 1   
    36   26   36 1   
    37   26   37 1   
    38   38   39 1   
    39   38   46 1   
    40   39   40 1   
    41   39   42 1   
    42   39   47 1   
    43   40   41 2   
    44   40   50 1   
    45   42   43 1   
    46   42   48 1   
    47   42   49 1   
    48   43   44 1   
    49   43   45 1   
    50   50   51 1   
    51   50   54 1   
    52   51   52 1   
    53   51   55 1   
    54   51   56 1   
    55   52   53 2   
    56   52   57 1   
    57   57   58 1   
    58   57   65 1   
    59   58   59 1   
    60   58   61 1   
    61   58   66 1   
    62   59   60 2   
    63   59   69 1   
    64   61   62 1   
    65   61   67 1   
    66   61   68 1   
    67   62   63 1   
    68   62   64 1   
    69   69   70 1   
    70   69   73 1   
    71   70   71 1   
    72   70   74 1   
    73   70   75 1   
    74   71   72 2   
    75   71   76 1   
    76   76   77 1   
    77   76   85 1   
    78   77   78 1   
    79   77   80 1   
    80   77   86 1   
    81   78   79 2   
    82   78   93 1   
    83   80   81 1   
    84   80   87 1   
    85   80   88 1   
    86   81   82 1   
    87   81   89 1   
    88   81   90 1   
    89   82   83 1   
    90   82   84 2   
    91   83   91 1   
    92   83   92 1   
    93   93   94 1   
    94   93  100 1   
    95   94   95 1   
    96   94   97 1   
    97   94  101 1   
    98   95   96 2   
    99   95  109 1   
   100   97   98 1   
   101   97   99 1   
   102   97  102 1   
   103   98  103 1   
   104   98  104 1   
   105   98  105 1   
   106   99  106 1   
   107   99  107 1   
   108   99  108 1   
   109  109  110 1   
   110  109  117 1   
   111  110  111 1   
   112  110  113 1   
   113  110  118 1   
   114  111  112 2   
   115  111  123 1   
   116  113  114 1   
   117  113  119 1   
   118  113  120 1   
   119  114  115 1   
   120  114  116 2   
   121  115  121 1   
   122  115  122 1   
   123  123  124 1   
   124  123  135 1   
   125  124  125 1   
   126  124  127 1   
   127  124  136 1   
   128  125  126 2   
   129  125  144 1   
   130  127  128 1   
   131  127  137 1   
   132  127  138 1   
   133  128  129 ar  
   134  128  130 ar  
   135  129  131 ar  
   136  129  139 1   
   137  130  132 ar  
   138  130  140 1   
   139  131  133 ar  
   140  131  141 1   
   141  132  133 ar  
   142  132  142 1   
   143  133  134 1   
   144  134  143 1   
   145  144  145 1   
   146  144  153 1   
   147  145  146 1   
   148  145  148 1   
   149  145  154 1   
   150  146  147 2   
   151  146  159 1   
   152  148  149 1   
   153  148  155 1   
   154  148  156 1   
   155  149  150 1   
   156  149  157 1   
   157  149  158 1   
   158  150  151 1   
   159  150  152 1   
   160  159  160 1   
   161  159  168 1   
   162  160  161 1   
   163  160  163 1   
   164  160  169 1   
   165  161  162 2   
   166  161  174 1   
   167  163  164 1   
   168  163  170 1   
   169  163  171 1   
   170  164  165 1   
   171  164  172 1   
   172  164  173 1   
   173  165  166 1   
   174  165  167 1   
   175  174  175 1   
   176  174  179 1   
   177  175  176 1   
   178  175  177 1   
   179  175  178 1   
   180  181  182 1   
   181  181  183 1   
   182  184  185 1   
   183  184  186 1   
   184  187  188 1   
   185  187  189 1   
@<TRIPOS>SUBSTRUCTURE
     1 MOL         1 TEMP              0 ****  ****    0 ROOT
