@<TRIPOS>MOLECULE
MOL
  186   183     1     0     0
SMALL
resp


@<TRIPOS>ATOM
      1 C1          0.7810   -1.9760    6.4130 c3        1 MOL     -0.271157
      2 C2          1.0250   -1.9740    4.9110 c         1 MOL      0.760405
      3 O1          0.2110   -2.3680    4.0860 o         1 MOL     -0.618274
      4 H1          1.6280   -2.4430    6.9160 hc        1 MOL      0.061534
      5 H2          0.6700   -0.9500    6.7650 hc        1 MOL      0.061534
      6 H3         -0.1270   -2.5360    6.6340 hc        1 MOL      0.061534
      7 N1          2.1690   -1.4110    4.4130 n         1 MOL     -0.581338
      8 C3          2.7060   -1.5740    3.0600 c3        1 MOL      0.328597
      9 C4          3.2110   -2.9540    2.7090 c         1 MOL      0.301343
     10 O2          4.1410   -3.5080    3.3500 o         1 MOL     -0.542459
     11 C5          3.8590   -0.5580    3.0700 c3        1 MOL     -0.508398
     12 C6          4.5600   -0.4220    1.7100 c         1 MOL      1.028324
     13 O3          3.8790   -0.5760    0.6220 o         1 MOL     -0.752051
     14 O4          5.7200   -0.1070    1.6630 o         1 MOL     -0.752051
     15 H4          2.8530   -0.9770    5.0190 hn        1 MOL      0.281747
     16 H5          2.0170   -1.2130    2.3060 h1        1 MOL     -0.013765
     17 H6          4.6530   -0.8400    3.7600 hc        1 MOL      0.096924
     18 H7          3.5170    0.4260    3.3930 hc        1 MOL      0.096924
     19 N2          2.5160   -3.5550    1.7610 n         1 MOL     -0.166928
     20 C7          2.7990   -4.9230    1.3210 c3        1 MOL      0.062823
     21 C8          3.6770   -5.1160    0.0400 c         1 MOL      0.416778
     22 O5          4.3080   -6.1990   -0.1010 o         1 MOL     -0.553543
     23 C9          1.5220   -5.8030    1.3910 c3        1 MOL      0.300218
     24 C10         0.2650   -5.1610    2.0180 c3        1 MOL     -0.084404
     25 C11         1.8850   -7.0530    2.1960 c3        1 MOL     -0.202109
     26 C12        -1.0340   -6.0080    1.9740 c3        1 MOL     -0.218518
     27 H8          1.8970   -3.0570    1.1390 hn        1 MOL      0.158461
     28 H9          3.4110   -5.3190    2.1430 h1        1 MOL      0.038037
     29 H10         1.2590   -6.1110    0.3760 hc        1 MOL     -0.039191
     30 H11         0.1170   -4.2420    1.4530 hc        1 MOL      0.052922
     31 H12         0.4320   -4.8720    3.0650 hc        1 MOL      0.052922
     32 H13         2.7830   -7.4960    1.7710 hc        1 MOL      0.014963
     33 H14         2.0400   -6.6960    3.2100 hc        1 MOL      0.014963
     34 H15         1.0380   -7.7520    2.1720 hc        1 MOL      0.014963
     35 H16        -1.3930   -6.3640    1.0060 hc        1 MOL      0.052597
     36 H17        -0.9140   -6.8010    2.7100 hc        1 MOL      0.052597
     37 H18        -1.9100   -5.5010    2.3780 hc        1 MOL      0.052597
     38 N3          3.8100   -4.0470   -0.8100 n         1 MOL     -0.298242
     39 C13         4.5220   -4.1130   -2.1280 c3        1 MOL      0.036372
     40 C14         5.8090   -3.3130   -2.2280 c         1 MOL      0.396678
     41 O6          6.3180   -3.2070   -3.3270 o         1 MOL     -0.469461
     42 C15         3.6670   -3.8670   -3.3720 c3        1 MOL     -0.047767
     43 C16         3.1270   -2.4580   -3.4610 c         1 MOL      0.878255
     44 O7          2.3570   -2.1080   -4.4140 o         1 MOL     -0.773581
     45 O8          3.3450   -1.7030   -2.5380 o         1 MOL     -0.773581
     46 H19         3.3460   -3.1610   -0.7180 hn        1 MOL      0.194813
     47 H20         4.8050   -5.1620   -2.2120 h1        1 MOL      0.059442
     48 H21         2.8500   -4.5930   -3.3760 hc        1 MOL     -0.005741
     49 H22         4.1910   -4.0440   -4.3090 hc        1 MOL     -0.005741
     50 N4          6.3380   -2.7890   -1.0810 n         1 MOL     -0.190591
     51 C17         7.6160   -2.1220   -1.1280 c3        1 MOL     -0.233359
     52 C18         7.6780   -0.7450   -1.7310 c         1 MOL      0.811066
     53 O9          8.4380   -0.6710   -2.7150 o         1 MOL     -0.616847
     54 H23         5.7120   -2.7510   -0.2950 hn        1 MOL      0.202775
     55 H24         8.3010   -2.8280   -1.6080 h1        1 MOL      0.062202
     56 H25         7.9210   -2.0220   -0.0880 h1        1 MOL      0.062202
     57 N5          7.0090    0.2290   -1.1650 n         1 MOL     -0.562394
     58 C19         7.1510    1.6100   -1.6970 c3        1 MOL     -0.058168
     59 C20         7.0280    2.7660   -0.6370 c         1 MOL      0.533952
     60 O10         7.0800    3.9280   -1.0240 o         1 MOL     -0.561774
     61 C21         6.1070    1.8850   -2.8620 c3        1 MOL     -0.083283
     62 C22         4.7070    1.6060   -2.4270 c         1 MOL      0.641318
     63 O11         4.2830    1.9100   -1.2940 o         1 MOL     -0.687691
     64 O12         3.9830    1.0010   -3.2730 o         1 MOL     -0.687691
     65 H26         6.3380    0.1550   -0.4170 hn        1 MOL      0.282980
     66 H27         8.1510    1.7670   -2.0810 h1        1 MOL      0.070507
     67 H28         6.3620    1.2280   -3.6920 hc        1 MOL      0.046151
     68 H29         6.1910    2.8690   -3.3320 hc        1 MOL      0.046151
     69 N6          6.8100    2.4800    0.6410 n         1 MOL     -0.349807
     70 C23         6.8170    3.5770    1.6720 c3        1 MOL     -0.288008
     71 C24         5.4750    4.4230    1.6730 c         1 MOL      0.558570
     72 O13         5.3720    5.4510    2.3840 o         1 MOL     -0.600672
     73 H30         6.5550    1.5570    0.9500 hn        1 MOL      0.315188
     74 H31         7.5230    4.3780    1.4380 h1        1 MOL      0.141233
     75 H32         6.8180    3.1960    2.6950 h1        1 MOL      0.141233
     76 N7          4.4480    3.9710    0.9420 n         1 MOL     -0.242306
     77 C25         3.0130    4.3670    1.2050 c3        1 MOL     -0.051135
     78 C26         2.0360    3.2570    1.4060 c         1 MOL      0.681426
     79 O14         2.1800    2.1660    0.8170 o         1 MOL     -0.708878
     80 C27         2.4760    5.3390    0.1000 c3        1 MOL      0.107658
     81 C28         2.9800    6.8180    0.1770 c3        1 MOL     -0.393256
     82 C29         2.5420    7.6050   -1.0930 c         1 MOL      0.729601
     83 N8          3.2680    7.6940   -2.1600 n         1 MOL     -0.789843
     84 O15         1.5330    8.2920   -1.0460 o         1 MOL     -0.599623
     85 H33         4.6270    3.1430    0.4020 hn        1 MOL      0.167460
     86 H34         2.9520    4.9590    2.1140 h1        1 MOL      0.074759
     87 H35         1.3890    5.4320    0.0620 hc        1 MOL      0.007589
     88 H36         2.7450    4.8800   -0.8510 hc        1 MOL      0.007589
     89 H37         4.0730    6.7980    0.1670 hc        1 MOL      0.115955
     90 H38         2.7770    7.4260    1.0700 hc        1 MOL      0.115955
     91 H39         4.1460    7.1840   -2.1730 hn        1 MOL      0.359999
     92 H40         2.9430    8.0980   -3.0210 hn        1 MOL      0.359999
     93 N9          0.9240    3.4670    2.1300 n         1 MOL     -0.611130
     94 C30        -0.2070    2.5390    2.1620 c3        1 MOL      0.350087
     95 C31        -1.2440    2.9480    1.1210 c         1 MOL      0.344441
     96 O16        -1.6180    4.1440    1.1320 o         1 MOL     -0.581428
     97 C32        -0.8350    2.5230    3.5570 c3        1 MOL      0.274608
     98 C33        -2.1130    1.6150    3.6420 c3        1 MOL     -0.394139
     99 C34         0.1770    1.9400    4.4840 c3        1 MOL     -0.394139
    100 H41         0.6570    4.3970    2.4220 hn        1 MOL      0.281816
    101 H42         0.1550    1.5300    1.9600 h1        1 MOL      0.115414
    102 H43        -1.1180    3.5480    3.7570 hc        1 MOL     -0.046023
    103 H44        -2.8960    1.9740    2.9740 hc        1 MOL      0.079854
    104 H45        -1.8990    0.5680    3.4210 hc        1 MOL      0.079854
    105 H46        -2.4200    1.6240    4.6870 hc        1 MOL      0.079854
    106 H47        -0.1110    2.1980    5.5010 hc        1 MOL      0.079854
    107 H48         0.2750    0.8760    4.3030 hc        1 MOL      0.079854
    108 H49         1.1620    2.3500    4.2390 hc        1 MOL      0.079854
    109 N10        -1.6340    2.0330    0.2180 n         1 MOL     -0.036056
    110 C35        -2.6330    2.3380   -0.7470 c3        1 MOL      0.059233
    111 C36        -4.0170    2.0180   -0.1750 c         1 MOL      0.339461
    112 O17        -4.0730    1.2260    0.7620 o         1 MOL     -0.363704
    113 C37        -2.3350    1.3890   -1.9510 c3        1 MOL     -0.524055
    114 C38        -3.2810    1.4510   -3.0750 c         1 MOL      0.760497
    115 N11        -3.5540    2.6410   -3.6910 n         1 MOL     -0.839877
    116 O18        -3.9840    0.4720   -3.3760 o         1 MOL     -0.535204
    117 H50        -1.2140    1.1240    0.2320 hn        1 MOL      0.035792
    118 H51        -2.5280    3.3870   -1.0460 h1        1 MOL      0.047178
    119 H52        -2.2910    0.3730   -1.5400 hc        1 MOL      0.215566
    120 H53        -1.3800    1.6770   -2.4120 hc        1 MOL      0.215566
    121 H54        -3.1570    3.4950   -3.3600 hn        1 MOL      0.367230
    122 H55        -4.2030    2.7110   -4.4640 hn        1 MOL      0.367230
    123 N12        -5.0920    2.4180   -0.8270 n         1 MOL     -0.361100
    124 C39        -6.4780    2.0020   -0.4330 c3        1 MOL      0.192667
    125 C40        -6.6670    0.4950   -0.3860 c         1 MOL      0.517479
    126 O19        -7.2200    0.0160    0.5730 o         1 MOL     -0.523702
    127 C41        -7.5610    2.6240   -1.3420 c3        1 MOL     -0.240407
    128 C42        -8.9580    2.4950   -0.8600 ca        1 MOL      0.176853
    129 C43        -9.4140    3.2200    0.3160 ca        1 MOL     -0.296089
    130 C44        -9.9270    1.6950   -1.5000 ca        1 MOL     -0.296089
    131 C45       -10.6480    2.9380    0.9230 ca        1 MOL     -0.111639
    132 C46       -11.1420    1.3820   -0.9000 ca        1 MOL     -0.111639
    133 C47       -11.5620    2.0500    0.2700 ca        1 MOL      0.218817
    134 O20       -12.8000    1.7950    0.8180 oh        1 MOL     -0.505735
    135 H56        -5.0280    3.1890   -1.4720 hn        1 MOL      0.233186
    136 H57        -6.7290    2.4450    0.5400 h1        1 MOL      0.033179
    137 H58        -7.3680    2.2290   -2.3340 hc        1 MOL      0.068252
    138 H59        -7.2710    3.6730   -1.3790 hc        1 MOL      0.068252
    139 H60        -8.7090    3.8410    0.8430 ha        1 MOL      0.166290
    140 H61        -9.5450    1.1990   -2.3740 ha        1 MOL      0.166290
    141 H62       -10.8410    3.3330    1.9150 ha        1 MOL      0.118227
    142 H63       -11.7930    0.7090   -1.4490 ha        1 MOL      0.118227
    143 H64       -13.1240    0.9680    0.4580 ho        1 MOL      0.374901
    144 N13        -6.0570   -0.2680   -1.3100 n         1 MOL     -0.347471
    145 C48        -6.2430   -1.7140   -1.2680 c3        1 MOL     -0.000971
    146 C49        -5.4740   -2.4250   -0.1180 c         1 MOL      0.239828
    147 O21        -5.8230   -3.5210    0.4040 o         1 MOL     -0.496919
    148 C50        -5.7770   -2.3270   -2.6390 c3        1 MOL     -0.028866
    149 C51        -5.9910   -3.8630   -2.6090 c3        1 MOL     -0.198924
    150 C52        -5.8210   -4.5400   -3.9850 c         1 MOL      0.733588
    151 O22        -6.4470   -4.0830   -4.9660 o         1 MOL     -0.750121
    152 O23        -5.0800   -5.5440   -4.0570 o         1 MOL     -0.750121
    153 H65        -5.4700    0.0600   -2.0690 hn        1 MOL      0.207824
    154 H66        -7.3000   -1.9390   -1.1940 h1        1 MOL      0.105252
    155 H67        -4.7310   -2.0740   -2.8350 hc        1 MOL      0.028760
    156 H68        -6.4130   -1.9450   -3.4360 hc        1 MOL      0.028760
    157 H69        -7.0220   -4.0550   -2.2980 hc        1 MOL      0.035727
    158 H70        -5.2910   -4.3730   -1.9440 hc        1 MOL      0.035727
    159 N14        -4.2970   -1.8560    0.2780 n         1 MOL     -0.025886
    160 C53        -3.4510   -2.3220    1.4320 c3        1 MOL     -0.167243
    161 C54        -3.9890   -1.7910    2.7860 c         1 MOL      0.447190
    162 O24        -3.7230   -2.4490    3.7780 o         1 MOL     -0.563921
    163 C55        -2.0490   -1.7820    1.2190 c3        1 MOL      0.011509
    164 C56        -1.4170   -2.2160   -0.0730 c3        1 MOL     -0.248413
    165 C57         0.0120   -1.5730   -0.1390 c         1 MOL      0.737969
    166 O25         1.0520   -2.2490   -0.4450 o         1 MOL     -0.773692
    167 O26         0.0490   -0.2980   -0.0840 o         1 MOL     -0.773692
    168 H71        -4.1440   -0.9290   -0.1010 hn        1 MOL      0.108134
    169 H72        -3.5460   -3.4070    1.5320 h1        1 MOL      0.155345
    170 H73        -1.4070   -1.8260    2.0980 hc        1 MOL      0.087157
    171 H74        -2.2320   -0.7110    1.1230 hc        1 MOL      0.087157
    172 H75        -1.9490   -1.8220   -0.9360 hc        1 MOL      0.090567
    173 H76        -1.3150   -3.2860   -0.2320 hc        1 MOL      0.090567
    174 N15        -4.7370   -0.6900    2.7670 n         1 MOL      0.040156
    175 C58        -5.5250   -0.1390    3.9000 c3        1 MOL     -0.283909
    176 H77        -4.9370   -0.2030    4.8150 h1        1 MOL      0.089820
    177 H78        -5.7710    0.9040    3.6990 h1        1 MOL      0.089820
    178 H79        -6.4430   -0.7130    4.0180 h1        1 MOL      0.089820
    179 H80        -4.9850   -0.2730    1.8760 hn        1 MOL      0.053982
    180 Ca1         2.2640    0.1950   -1.2120 Ca        1 MOL      1.787791
    181 O27         1.6530    2.6170   -2.0580 oh        1 MOL     -0.882259
    182 H81         1.6520    3.0650   -2.9010 ho        1 MOL      0.417337
    183 H82         2.3240    3.0580   -1.5510 ho        1 MOL      0.417337
    184 O28         0.5100   -0.5700   -3.4790 oh        1 MOL     -0.882259
    185 H83         1.3220   -0.9660   -3.7930 ho        1 MOL      0.417337
    186 H84        -0.1650   -1.2320   -3.6420 ho        1 MOL      0.417337
@<TRIPOS>BOND
     1    1    2 1   
     2    1    4 1   
     3    1    5 1   
     4    1    6 1   
     5    2    3 2   
     6    2    7 1   
     7    7    8 1   
     8    7   15 1   
     9    8    9 1   
    10    8   11 1   
    11    8   16 1   
    12    9   10 2   
    13    9   19 1   
    14   11   12 1   
    15   11   17 1   
    16   11   18 1   
    17   12   13 1   
    18   12   14 1   
    19   19   20 1   
    20   19   27 1   
    21   20   21 1   
    22   20   23 1   
    23   20   28 1   
    24   21   22 2   
    25   21   38 1   
    26   23   24 1   
    27   23   25 1   
    28   23   29 1   
    29   24   26 1   
    30   24   30 1   
    31   24   31 1   
    32   25   32 1   
    33   25   33 1   
    34   25   34 1   
    35   26   35 1   
    36   26   36 1   
    37   26   37 1   
    38   38   39 1   
    39   38   46 1   
    40   39   40 1   
    41   39   42 1   
    42   39   47 1   
    43   40   41 2   
    44   40   50 1   
    45   42   43 1   
    46   42   48 1   
    47   42   49 1   
    48   43   44 1   
    49   43   45 1   
    50   50   51 1   
    51   50   54 1   
    52   51   52 1   
    53   51   55 1   
    54   51   56 1   
    55   52   53 2   
    56   52   57 1   
    57   57   58 1   
    58   57   65 1   
    59   58   59 1   
    60   58   61 1   
    61   58   66 1   
    62   59   60 2   
    63   59   69 1   
    64   61   62 1   
    65   61   67 1   
    66   61   68 1   
    67   62   63 1   
    68   62   64 1   
    69   69   70 1   
    70   69   73 1   
    71   70   71 1   
    72   70   74 1   
    73   70   75 1   
    74   71   72 2   
    75   71   76 1   
    76   76   77 1   
    77   76   85 1   
    78   77   78 1   
    79   77   80 1   
    80   77   86 1   
    81   78   79 2   
    82   78   93 1   
    83   80   81 1   
    84   80   87 1   
    85   80   88 1   
    86   81   82 1   
    87   81   89 1   
    88   81   90 1   
    89   82   83 1   
    90   82   84 2   
    91   83   91 1   
    92   83   92 1   
    93   93   94 1   
    94   93  100 1   
    95   94   95 1   
    96   94   97 1   
    97   94  101 1   
    98   95   96 2   
    99   95  109 1   
   100   97   98 1   
   101   97   99 1   
   102   97  102 1   
   103   98  103 1   
   104   98  104 1   
   105   98  105 1   
   106   99  106 1   
   107   99  107 1   
   108   99  108 1   
   109  109  110 1   
   110  109  117 1   
   111  110  111 1   
   112  110  113 1   
   113  110  118 1   
   114  111  112 2   
   115  111  123 1   
   116  113  114 1   
   117  113  119 1   
   118  113  120 1   
   119  114  115 1   
   120  114  116 2   
   121  115  121 1   
   122  115  122 1   
   123  123  124 1   
   124  123  135 1   
   125  124  125 1   
   126  124  127 1   
   127  124  136 1   
   128  125  126 2   
   129  125  144 1   
   130  127  128 1   
   131  127  137 1   
   132  127  138 1   
   133  128  129 ar  
   134  128  130 ar  
   135  129  131 ar  
   136  129  139 1   
   137  130  132 ar  
   138  130  140 1   
   139  131  133 ar  
   140  131  141 1   
   141  132  133 ar  
   142  132  142 1   
   143  133  134 1   
   144  134  143 1   
   145  144  145 1   
   146  144  153 1   
   147  145  146 1   
   148  145  148 1   
   149  145  154 1   
   150  146  147 2   
   151  146  159 1   
   152  148  149 1   
   153  148  155 1   
   154  148  156 1   
   155  149  150 1   
   156  149  157 1   
   157  149  158 1   
   158  150  151 1   
   159  150  152 1   
   160  159  160 1   
   161  159  168 1   
   162  160  161 1   
   163  160  163 1   
   164  160  169 1   
   165  161  162 2   
   166  161  174 1   
   167  163  164 1   
   168  163  170 1   
   169  163  171 1   
   170  164  165 1   
   171  164  172 1   
   172  164  173 1   
   173  165  166 1   
   174  165  167 1   
   175  174  175 1   
   176  174  179 1   
   177  175  176 1   
   178  175  177 1   
   179  175  178 1   
   180  181  182 1   
   181  181  183 1   
   182  184  185 1   
   183  184  186 1   
@<TRIPOS>SUBSTRUCTURE
     1 MOL         1 TEMP              0 ****  ****    0 ROOT
