@<TRIPOS>MOLECULE
MOL
  189   185     1     0     0
SMALL
resp


@<TRIPOS>ATOM
      1 C1         -0.1290    1.9310    6.2480 c3        1 MOL     -0.221603
      2 C2         -0.3300    1.8770    4.7230 c         1 MOL      0.700745
      3 O1          0.4520    2.3480    3.9400 o         1 MOL     -0.612275
      4 H1          0.8890    2.2540    6.4690 hc        1 MOL      0.054705
      5 H2         -0.8360    2.6370    6.6830 hc        1 MOL      0.054705
      6 H3         -0.2950    0.9410    6.6730 hc        1 MOL      0.054705
      7 N1         -1.3910    1.2160    4.3240 n         1 MOL     -0.620805
      8 C3         -1.9820    1.2680    2.9400 c3        1 MOL      0.419838
      9 C4         -2.3660    2.7630    2.6600 c         1 MOL      0.345513
     10 O2         -3.3130    3.2680    3.2880 o         1 MOL     -0.534400
     11 C5         -3.2210    0.3160    2.9790 c3        1 MOL     -0.466383
     12 C6         -4.0750    0.3900    1.7080 c         1 MOL      0.784657
     13 O3         -5.3160    0.3350    1.7970 o         1 MOL     -0.631898
     14 O4         -3.4600    0.4740    0.6180 o         1 MOL     -0.631898
     15 H4         -1.9700    0.6560    4.9310 hn        1 MOL      0.317071
     16 H5         -1.2790    0.8460    2.2220 h1        1 MOL     -0.134345
     17 H6         -3.8290    0.5630    3.8480 hc        1 MOL      0.099593
     18 H7         -2.8810   -0.7150    3.0640 hc        1 MOL      0.099593
     19 N2         -1.6160    3.3460    1.7540 n         1 MOL     -0.035031
     20 C7         -1.5590    4.7820    1.4250 c3        1 MOL     -0.314950
     21 C8         -2.5940    5.1340    0.3190 c         1 MOL      0.604999
     22 O5         -2.9370    6.3280    0.2610 o         1 MOL     -0.577475
     23 C9         -0.0510    5.1720    1.2150 c3        1 MOL      0.014911
     24 C10         0.0990    6.6320    1.2160 c3        1 MOL      0.201061
     25 C11         1.4410    7.1710    0.9130 c3        1 MOL     -0.139925
     26 C12         1.9610    6.7300   -0.4140 c3        1 MOL      0.202793
     27 N3          3.2270    7.4680   -0.7090 n4        1 MOL     -0.568969
     28 H8         -1.0570    2.7240    1.2010 hn        1 MOL      0.281607
     29 H9         -1.8730    5.2530    2.3570 h1        1 MOL      0.131423
     30 H10         0.3910    4.7460    0.3120 hc        1 MOL      0.018539
     31 H11         0.4590    4.8320    2.1140 hc        1 MOL      0.018539
     32 H12        -0.1540    7.0480    2.1950 hc        1 MOL     -0.011886
     33 H13        -0.6090    7.0100    0.4750 hc        1 MOL     -0.011886
     34 H14         2.1090    6.8720    1.7140 hc        1 MOL      0.035281
     35 H15         1.3120    8.2590    0.9590 hc        1 MOL      0.035281
     36 H16         1.2070    6.7910   -1.1990 hx        1 MOL      0.042553
     37 H17         2.2100    5.6840   -0.2270 hx        1 MOL      0.042553
     38 H18         3.9970    7.2440   -0.0900 hn        1 MOL      0.373433
     39 H19         3.6410    7.1590   -1.5700 hn        1 MOL      0.373433
     40 H20         2.9980    8.4520   -0.6420 hn        1 MOL      0.373433
     41 N4         -3.1130    4.1660   -0.4680 n         1 MOL     -0.324825
     42 C13        -4.0800    4.3400   -1.5320 c3        1 MOL      0.078337
     43 C14        -5.4760    3.7130   -1.3840 c         1 MOL      0.409207
     44 O6         -6.4200    4.0170   -2.1270 o         1 MOL     -0.520581
     45 C15        -3.4230    4.0740   -2.8820 c3        1 MOL     -0.261924
     46 C16        -2.7230    2.7310   -3.0860 c         1 MOL      0.826592
     47 O7         -2.0660    2.5490   -4.0980 o         1 MOL     -0.715460
     48 O8         -2.7090    1.8990   -2.1690 o         1 MOL     -0.715460
     49 H21        -2.6700    3.2580   -0.4450 hn        1 MOL      0.162774
     50 H22        -4.3000    5.4150   -1.5070 h1        1 MOL      0.069505
     51 H23        -2.5950    4.7660   -3.0120 hc        1 MOL      0.060278
     52 H24        -4.1820    4.2890   -3.6410 hc        1 MOL      0.060278
     53 N5         -5.6690    2.6900   -0.5210 n         1 MOL     -0.188596
     54 C17        -6.9540    2.1590   -0.1840 c3        1 MOL     -0.031971
     55 C18        -7.3640    1.0080   -1.0140 c         1 MOL      0.539286
     56 O9         -8.5540    0.9210   -1.2920 o         1 MOL     -0.596330
     57 H25        -4.8250    2.3440   -0.0980 hn        1 MOL      0.106633
     58 H26        -7.6940    2.9540   -0.1620 h1        1 MOL      0.068257
     59 H27        -6.9170    1.7390    0.8210 h1        1 MOL      0.068257
     60 N6         -6.4780    0.1000   -1.3900 n         1 MOL     -0.173361
     61 C19        -6.8520   -1.1330   -2.1370 c3        1 MOL     -0.133227
     62 C20        -7.0920   -2.4030   -1.2070 c         1 MOL      0.409357
     63 O10        -7.2950   -3.5350   -1.6590 o         1 MOL     -0.501767
     64 C21        -5.8310   -1.3760   -3.2360 c3        1 MOL     -0.067288
     65 C22        -4.4400   -1.4200   -2.6820 c         1 MOL      0.653485
     66 O11        -3.5600   -0.8500   -3.3100 o         1 MOL     -0.697393
     67 O12        -4.1760   -1.8490   -1.5410 o         1 MOL     -0.697393
     68 H28        -5.5310    0.1940   -1.0560 hn        1 MOL      0.128120
     69 H29        -7.7710   -0.9510   -2.6970 h1        1 MOL      0.143021
     70 H30        -5.8860   -0.5310   -3.9270 hc        1 MOL      0.048309
     71 H31        -6.0510   -2.2560   -3.8330 hc        1 MOL      0.048309
     72 N7         -7.0460   -2.2100    0.1250 n         1 MOL     -0.227511
     73 C23        -6.9680   -3.3020    1.1150 c3        1 MOL     -0.345877
     74 C24        -5.6550   -4.1520    1.0640 c         1 MOL      0.555959
     75 O13        -5.6590   -5.2160    1.6330 o         1 MOL     -0.554639
     76 H32        -6.9020   -1.2780    0.4750 hn        1 MOL      0.254016
     77 H33        -7.7180   -4.0390    0.7910 h1        1 MOL      0.161078
     78 H34        -7.0770   -2.9470    2.1390 h1        1 MOL      0.161078
     79 N8         -4.5550   -3.6380    0.4780 n         1 MOL     -0.184595
     80 C25        -3.2640   -4.4200    0.3590 c3        1 MOL     -0.214182
     81 C26        -1.9950   -3.5310    0.5340 c         1 MOL      0.674059
     82 O14        -2.1200   -2.3070    0.3830 o         1 MOL     -0.704152
     83 C27        -3.2090   -5.2470   -0.9440 c3        1 MOL      0.343543
     84 C28        -4.5250   -6.0330   -1.2250 c3        1 MOL     -0.300563
     85 O15        -3.2230   -4.2980   -2.0590 oh        1 MOL     -0.637337
     86 H35        -4.6340   -2.7430    0.0170 hn        1 MOL      0.178150
     87 H36        -3.2640   -5.0840    1.2180 h1        1 MOL      0.090302
     88 H37        -2.3550   -5.9210   -1.0250 h1        1 MOL      0.034459
     89 H38        -3.8210   -3.5790   -1.8270 ho        1 MOL      0.424398
     90 H39        -5.3140   -5.2870   -1.3050 hc        1 MOL      0.081658
     91 H40        -4.4750   -6.5710   -2.1660 hc        1 MOL      0.081658
     92 H41        -4.7210   -6.7470   -0.4220 hc        1 MOL      0.081658
     93 N9         -0.7940   -4.0600    0.8400 n         1 MOL     -0.563691
     94 C29         0.4730   -3.3480    1.1730 c3        1 MOL      0.123201
     95 C30         1.5740   -3.7530    0.1670 c         1 MOL      0.484071
     96 O16         2.0430   -4.8870    0.0170 o         1 MOL     -0.555507
     97 C31         0.6640   -3.4130    2.6780 c3        1 MOL      0.012817
     98 C32        -0.2850   -2.3880    3.3760 c3        1 MOL     -0.096624
     99 C33         2.1350   -3.4590    3.0670 c3        1 MOL     -0.000857
    100 C34        -0.2340   -2.3840    4.8680 c3        1 MOL     -0.303828
    101 H42        -0.7340   -5.0740    0.8780 hn        1 MOL      0.292009
    102 H43         0.3500   -2.2860    0.9540 h1        1 MOL      0.074941
    103 H44         0.2530   -4.4070    2.9030 hc        1 MOL      0.016901
    104 H45        -1.3300   -2.5140    3.0710 hc        1 MOL      0.124909
    105 H46        -0.1220   -1.3910    2.9590 hc        1 MOL      0.124909
    106 H47         2.4250   -2.4040    3.0070 hc        1 MOL      0.007288
    107 H48         2.1940   -3.8830    4.0670 hc        1 MOL      0.007288
    108 H49         2.7910   -4.1520    2.5290 hc        1 MOL      0.007288
    109 H50        -0.9110   -1.6860    5.3700 hc        1 MOL      0.072632
    110 H51        -0.6360   -3.2930    5.3080 hc        1 MOL      0.072632
    111 H52         0.8030   -2.2780    5.1910 hc        1 MOL      0.072632
    112 N10         2.1300   -2.7680   -0.5370 n         1 MOL     -0.208459
    113 C35         3.3770   -2.7900   -1.2910 c3        1 MOL     -0.082343
    114 C36         4.6090   -2.7190   -0.3250 c         1 MOL      0.185332
    115 O17         4.5000   -2.5220    0.8680 o         1 MOL     -0.186180
    116 C37         3.4460   -1.6360   -2.3100 c3        1 MOL      0.382592
    117 C38         2.5320   -1.7880   -3.4870 c3        1 MOL     -0.572543
    118 O18         3.0260   -0.4440   -1.6150 oh        1 MOL     -0.573336
    119 H53         1.6900   -1.8630   -0.4470 hn        1 MOL      0.125273
    120 H54         3.3660   -3.7240   -1.8470 h1        1 MOL      0.109962
    121 H55         4.4690   -1.5820   -2.6760 h1        1 MOL     -0.000488
    122 H56         2.1030   -0.6480   -1.4060 ho        1 MOL      0.367167
    123 H57         2.7230   -2.7440   -3.9850 hc        1 MOL      0.152987
    124 H58         1.4760   -1.8340   -3.2000 hc        1 MOL      0.152987
    125 H59         2.4780   -0.8740   -4.0770 hc        1 MOL      0.152987
    126 N11         5.8760   -2.9970   -0.8620 n         1 MOL     -0.164221
    127 C39         7.0960   -2.6090   -0.2240 c3        1 MOL     -0.283285
    128 C40         7.3200   -1.1530    0.1640 c         1 MOL      0.353253
    129 O19         8.0040   -0.8780    1.1400 o         1 MOL     -0.456493
    130 C41         8.2900   -3.0660   -1.1350 c3        1 MOL      0.283052
    131 C42         8.3430   -4.5640   -1.2710 c3        1 MOL     -0.448923
    132 O20         8.0840   -2.5440   -2.3980 oh        1 MOL     -0.664232
    133 H60         5.9240   -3.4750   -1.7440 hn        1 MOL      0.225456
    134 H61         7.0590   -3.1350    0.7350 h1        1 MOL      0.162171
    135 H62         9.2570   -2.7320   -0.7610 h1        1 MOL      0.084589
    136 H63         8.6650   -3.0680   -2.9580 ho        1 MOL      0.419283
    137 H64         7.5620   -5.0330   -1.8860 hc        1 MOL      0.131978
    138 H65         9.3190   -4.8570   -1.6610 hc        1 MOL      0.131978
    139 H66         8.1850   -5.0860   -0.3300 hc        1 MOL      0.131978
    140 N12         6.6290   -0.2780   -0.6060 n         1 MOL     -0.112899
    141 C43         6.5730    1.1560   -0.2940 c3        1 MOL     -0.152249
    142 C44         5.7480    1.5500    0.9510 c         1 MOL      0.373070
    143 O21         6.0050    2.4900    1.7090 o         1 MOL     -0.504536
    144 C45         6.0490    1.9670   -1.5050 c3        1 MOL     -0.082127
    145 C46         7.2370    2.0240   -2.5530 c3        1 MOL      0.045607
    146 C47         6.8340    2.7730   -3.8880 c3        1 MOL     -0.015143
    147 C48         7.9390    2.7660   -4.9540 c3        1 MOL     -0.023172
    148 N13         8.5980    1.4840   -5.2400 n4        1 MOL     -0.267753
    149 H67         6.3040   -0.6700   -1.4750 hn        1 MOL      0.244604
    150 H68         7.5980    1.4300   -0.0380 h1        1 MOL      0.126389
    151 H69         5.8510    2.9900   -1.1860 hc        1 MOL      0.071644
    152 H70         5.1300    1.5210   -1.8750 hc        1 MOL      0.071644
    153 H71         7.5630    1.0250   -2.8220 hc        1 MOL     -0.006098
    154 H72         8.1010    2.5310   -2.1250 hc        1 MOL     -0.006098
    155 H73         6.4210    3.7490   -3.6290 hc        1 MOL      0.032613
    156 H74         5.9440    2.2480   -4.2290 hc        1 MOL      0.032613
    157 H75         8.7000    3.5370   -4.8650 hx        1 MOL      0.089682
    158 H76         7.3840    3.0450   -5.8510 hx        1 MOL      0.089682
    159 H77         7.9570    0.7200   -5.3830 hn        1 MOL      0.280317
    160 H78         9.0300    1.5500   -6.1470 hn        1 MOL      0.280317
    161 H79         9.2840    1.2750   -4.5190 hn        1 MOL      0.280317
    162 N14         4.7460    0.6850    1.3010 n         1 MOL      0.019503
    163 C49         3.8390    0.6910    2.3720 c3        1 MOL     -0.065780
    164 C50         4.3720   -0.0710    3.6360 c         1 MOL      0.385693
    165 O22         4.5050    0.5180    4.7320 o         1 MOL     -0.522192
    166 C51         2.4580    0.1680    1.9360 c3        1 MOL      0.162933
    167 C52         1.7450    1.1730    1.0660 c3        1 MOL      0.073639
    168 C53         0.5720    0.6980    0.2460 c         1 MOL      0.664126
    169 O23         0.6260   -0.4110   -0.3820 o         1 MOL     -0.702180
    170 O24        -0.4040    1.4770   -0.0330 o         1 MOL     -0.702180
    171 H80         4.5570    0.0060    0.5740 hn        1 MOL     -0.017189
    172 H81         3.7050    1.7330    2.6650 h1        1 MOL      0.061253
    173 H82         1.8700    0.0010    2.8400 hc        1 MOL     -0.029109
    174 H83         2.7160   -0.6550    1.2770 hc        1 MOL     -0.029109
    175 H84         2.4070    1.6270    0.3270 hc        1 MOL     -0.058857
    176 H85         1.3470    1.9640    1.7140 hc        1 MOL     -0.058857
    177 N15         4.9600   -1.2060    3.3390 n         1 MOL      0.018297
    178 C54         5.7850   -1.9790    4.2510 c3        1 MOL     -0.306848
    179 H86         6.7520   -1.4900    4.3690 h1        1 MOL      0.110114
    180 H87         5.2920   -2.0460    5.2200 h1        1 MOL      0.110114
    181 H88         5.9320   -2.9810    3.8470 h1        1 MOL      0.110114
    182 H89         4.6440   -1.7030    2.5160 hn        1 MOL      0.020597
    183 Ca1        -1.8450   -0.3710   -1.3370 Ca        1 MOL      1.781754
    184 O25        -1.0020   -2.7320   -2.4590 oh        1 MOL     -0.885290
    185 H90        -1.7390   -3.3290   -2.3620 ho        1 MOL      0.408991
    186 H91        -0.7370   -2.8250   -3.3810 ho        1 MOL      0.408991
    187 O26        -0.4080    0.0160   -3.7420 oh        1 MOL     -0.885290
    188 H92        -0.6820    0.8660   -4.0830 ho        1 MOL      0.408991
    189 H93        -0.0150   -0.4340   -4.5020 ho        1 MOL      0.408991
@<TRIPOS>BOND
     1    1    2 1   
     2    1    4 1   
     3    1    5 1   
     4    1    6 1   
     5    2    3 2   
     6    2    7 1   
     7    7    8 1   
     8    7   15 1   
     9    8    9 1   
    10    8   11 1   
    11    8   16 1   
    12    9   10 2   
    13    9   19 1   
    14   11   12 1   
    15   11   17 1   
    16   11   18 1   
    17   12   13 1   
    18   12   14 1   
    19   19   20 1   
    20   19   28 1   
    21   20   21 1   
    22   20   23 1   
    23   20   29 1   
    24   21   22 2   
    25   21   41 1   
    26   23   24 1   
    27   23   30 1   
    28   23   31 1   
    29   24   25 1   
    30   24   32 1   
    31   24   33 1   
    32   25   26 1   
    33   25   34 1   
    34   25   35 1   
    35   26   27 1   
    36   26   36 1   
    37   26   37 1   
    38   27   38 1   
    39   27   39 1   
    40   27   40 1   
    41   41   42 1   
    42   41   49 1   
    43   42   43 1   
    44   42   45 1   
    45   42   50 1   
    46   43   44 2   
    47   43   53 1   
    48   45   46 1   
    49   45   51 1   
    50   45   52 1   
    51   46   47 1   
    52   46   48 1   
    53   53   54 1   
    54   53   57 1   
    55   54   55 1   
    56   54   58 1   
    57   54   59 1   
    58   55   56 2   
    59   55   60 1   
    60   60   61 1   
    61   60   68 1   
    62   61   62 1   
    63   61   64 1   
    64   61   69 1   
    65   62   63 2   
    66   62   72 1   
    67   64   65 1   
    68   64   70 1   
    69   64   71 1   
    70   65   66 1   
    71   65   67 1   
    72   72   73 1   
    73   72   76 1   
    74   73   74 1   
    75   73   77 1   
    76   73   78 1   
    77   74   75 2   
    78   74   79 1   
    79   79   80 1   
    80   79   86 1   
    81   80   81 1   
    82   80   83 1   
    83   80   87 1   
    84   81   82 2   
    85   81   93 1   
    86   83   84 1   
    87   83   85 1   
    88   83   88 1   
    89   84   90 1   
    90   84   91 1   
    91   84   92 1   
    92   85   89 1   
    93   93   94 1   
    94   93  101 1   
    95   94   95 1   
    96   94   97 1   
    97   94  102 1   
    98   95   96 2   
    99   95  112 1   
   100   97   98 1   
   101   97   99 1   
   102   97  103 1   
   103   98  100 1   
   104   98  104 1   
   105   98  105 1   
   106   99  106 1   
   107   99  107 1   
   108   99  108 1   
   109  100  109 1   
   110  100  110 1   
   111  100  111 1   
   112  112  113 1   
   113  112  119 1   
   114  113  114 1   
   115  113  116 1   
   116  113  120 1   
   117  114  115 2   
   118  114  126 1   
   119  116  117 1   
   120  116  118 1   
   121  116  121 1   
   122  117  123 1   
   123  117  124 1   
   124  117  125 1   
   125  118  122 1   
   126  126  127 1   
   127  126  133 1   
   128  127  128 1   
   129  127  130 1   
   130  127  134 1   
   131  128  129 2   
   132  128  140 1   
   133  130  131 1   
   134  130  132 1   
   135  130  135 1   
   136  131  137 1   
   137  131  138 1   
   138  131  139 1   
   139  132  136 1   
   140  140  141 1   
   141  140  149 1   
   142  141  142 1   
   143  141  144 1   
   144  141  150 1   
   145  142  143 2   
   146  142  162 1   
   147  144  145 1   
   148  144  151 1   
   149  144  152 1   
   150  145  146 1   
   151  145  153 1   
   152  145  154 1   
   153  146  147 1   
   154  146  155 1   
   155  146  156 1   
   156  147  148 1   
   157  147  157 1   
   158  147  158 1   
   159  148  159 1   
   160  148  160 1   
   161  148  161 1   
   162  162  163 1   
   163  162  171 1   
   164  163  164 1   
   165  163  166 1   
   166  163  172 1   
   167  164  165 2   
   168  164  177 1   
   169  166  167 1   
   170  166  173 1   
   171  166  174 1   
   172  167  168 1   
   173  167  175 1   
   174  167  176 1   
   175  168  169 1   
   176  168  170 1   
   177  177  178 1   
   178  177  182 1   
   179  178  179 1   
   180  178  180 1   
   181  178  181 1   
   182  184  185 1   
   183  184  186 1   
   184  187  188 1   
   185  187  189 1   
@<TRIPOS>SUBSTRUCTURE
     1 MOL         1 TEMP              0 ****  ****    0 ROOT
