@<TRIPOS>MOLECULE
MOL
  175   173     1     0     0
SMALL
resp


@<TRIPOS>ATOM
      1 C1         -0.9870    3.4200    5.8940 c3        1 MOL     -0.342614
      2 C2         -1.0470    2.9450    4.5220 c         1 MOL      0.754839
      3 O1         -0.2160    3.3250    3.6640 o         1 MOL     -0.584696
      4 H1         -1.3020    2.6240    6.5680 hc        1 MOL      0.080969
      5 H2          0.0350    3.7140    6.1330 hc        1 MOL      0.080969
      6 H3         -1.6490    4.2780    6.0120 hc        1 MOL      0.080969
      7 N1         -2.1490    2.3260    4.1010 n         1 MOL     -0.582363
      8 C3         -2.6350    2.1080    2.7150 c3        1 MOL      0.130227
      9 C4         -3.2490    3.4490    2.1300 c         1 MOL      0.760857
     10 O2         -3.9420    4.1140    2.8600 o         1 MOL     -0.622773
     11 C5         -3.6200    0.9630    2.6580 c3        1 MOL     -0.076045
     12 C6         -4.3200    0.7970    1.2830 c         1 MOL      0.276657
     13 O3         -5.4720    0.2960    1.2970 o         1 MOL     -0.472011
     14 O4         -3.7080    1.0260    0.2110 o         1 MOL     -0.472011
     15 H4         -2.7830    1.9410    4.7830 hn        1 MOL      0.284390
     16 H5         -1.7520    1.7750    2.1770 h1        1 MOL     -0.070206
     17 H6         -4.3440    1.0380    3.4700 hc        1 MOL      0.036451
     18 H7         -3.1530    0.0200    2.9510 hc        1 MOL      0.036451
     19 N2         -2.7990    3.7240    0.9080 n         1 MOL     -0.686392
     20 C7         -3.0410    4.9370    0.1400 c3        1 MOL      0.376866
     21 C8         -4.0580    4.7610   -0.9860 c         1 MOL      0.400655
     22 O5         -4.2340    5.6940   -1.7410 o         1 MOL     -0.543608
     23 C9         -1.7060    5.4980   -0.3490 c3        1 MOL     -0.206198
     24 H8         -2.1580    3.0620    0.4950 hn        1 MOL      0.414142
     25 H9         -3.4990    5.7180    0.7440 h1        1 MOL     -0.023342
     26 H10        -1.1930    4.8320   -1.0480 hc        1 MOL      0.058096
     27 H11        -1.8420    6.4110   -0.9180 hc        1 MOL      0.058096
     28 H12        -1.0630    5.7050    0.5030 hc        1 MOL      0.058096
     29 N3         -4.5810    3.5840   -1.2190 n         1 MOL     -0.393975
     30 C10        -5.4530    3.3530   -2.4280 c3        1 MOL     -0.009517
     31 C11        -6.7230    2.4710   -2.1730 c         1 MOL      0.462990
     32 O6         -7.4520    2.0890   -3.1420 o         1 MOL     -0.492398
     33 C12        -4.6230    2.8040   -3.6450 c3        1 MOL      0.014030
     34 C13        -3.6020    1.7380   -3.2190 c         1 MOL      0.541394
     35 O7         -3.8950    0.5060   -3.0080 o         1 MOL     -0.677665
     36 O8         -2.5350    2.1960   -2.8130 o         1 MOL     -0.677665
     37 H13        -4.2790    2.8060   -0.6400 hn        1 MOL      0.277629
     38 H14        -5.9340    4.3010   -2.6700 h1        1 MOL      0.093202
     39 H15        -4.0800    3.6600   -4.0250 hc        1 MOL      0.006472
     40 H16        -5.2550    2.4490   -4.4590 hc        1 MOL      0.006472
     41 N4         -6.9580    2.2230   -0.8690 n         1 MOL     -0.342493
     42 C14        -8.1110    1.5090   -0.4710 c3        1 MOL     -0.038638
     43 C15        -8.2310    0.0810   -1.0090 c         1 MOL      0.393847
     44 O9         -9.3220   -0.4430   -1.3840 o         1 MOL     -0.568484
     45 H17        -6.2800    2.4080   -0.1380 hn        1 MOL      0.259792
     46 H18        -9.0630    1.9890   -0.6640 h1        1 MOL      0.063916
     47 H19        -7.9850    1.3730    0.6030 h1        1 MOL      0.063916
     48 N5         -7.0920   -0.6180   -1.0190 n         1 MOL     -0.036180
     49 C16        -6.9840   -2.0330   -1.3560 c3        1 MOL     -0.119679
     50 C17        -6.4920   -2.9520   -0.1480 c         1 MOL      0.432996
     51 O10        -6.4030   -4.1610   -0.2660 o         1 MOL     -0.520320
     52 C18        -6.0330   -2.1760   -2.5810 c3        1 MOL     -0.073395
     53 C19        -4.5480   -2.3710   -2.2990 c         1 MOL      0.436085
     54 N6         -3.8050   -2.7850   -3.3080 n         1 MOL     -0.786138
     55 O11        -3.9790   -1.9790   -1.3010 o         1 MOL     -0.372694
     56 H20        -6.2810   -0.1960   -0.5980 hn        1 MOL      0.031248
     57 H21        -7.9740   -2.3780   -1.6520 h1        1 MOL      0.125444
     58 H22        -6.1780   -1.2960   -3.2200 hc        1 MOL      0.062943
     59 H23        -6.3880   -3.0160   -3.1620 hc        1 MOL      0.062943
     60 H24        -4.1800   -2.8690   -4.2360 hn        1 MOL      0.370103
     61 H25        -2.8280   -2.9680   -3.1120 hn        1 MOL      0.370103
     62 N7         -6.5010   -2.3870    1.0650 n         1 MOL     -0.235470
     63 C20        -6.2870   -3.1270    2.3550 c3        1 MOL     -0.189975
     64 C21        -4.8400   -3.6420    2.5900 c         1 MOL      0.543671
     65 O12        -4.5630   -4.3440    3.5440 o         1 MOL     -0.579240
     66 H26        -6.5420   -1.3830    1.2000 hn        1 MOL      0.202507
     67 H27        -6.9180   -4.0100    2.3130 h1        1 MOL      0.105696
     68 H28        -6.4570   -2.5280    3.2460 h1        1 MOL      0.105696
     69 N8         -3.8740   -3.3930    1.6670 n         1 MOL     -0.126436
     70 C22        -2.4780   -3.8600    1.9740 c3        1 MOL     -0.165012
     71 C23        -1.5000   -2.6400    1.7920 c         1 MOL      0.618534
     72 O13        -1.8830   -1.6440    1.2100 o         1 MOL     -0.610032
     73 C24        -2.1730   -5.0330    1.0140 c3        1 MOL      0.416942
     74 C25        -2.9590   -6.2710    1.2170 c3        1 MOL     -0.292293
     75 O14        -2.2680   -4.5610   -0.2810 oh        1 MOL     -0.646456
     76 H29        -4.0190   -2.8870    0.8050 hn        1 MOL      0.150544
     77 H30        -2.3800   -4.1370    3.0260 h1        1 MOL      0.096367
     78 H31        -1.1690   -5.4220    1.1800 h1        1 MOL     -0.009720
     79 H32        -2.5410   -5.2690   -0.8610 ho        1 MOL      0.406641
     80 H33        -3.9940   -6.0730    0.9260 hc        1 MOL      0.069721
     81 H34        -2.4920   -7.0990    0.6690 hc        1 MOL      0.069721
     82 H35        -2.9320   -6.5160    2.2780 hc        1 MOL      0.069721
     83 N9         -0.2090   -2.8930    2.1800 n         1 MOL     -0.427363
     84 C26         0.9030   -2.0050    1.8360 c3        1 MOL     -0.067071
     85 C27         1.8560   -2.6990    0.9010 c         1 MOL      0.382851
     86 O15         2.2600   -3.8900    1.1200 o         1 MOL     -0.581962
     87 C28         1.5520   -1.1810    3.0040 c3        1 MOL      0.456923
     88 C29         2.0710   -2.1360    4.0850 c3        1 MOL     -0.122268
     89 C30         0.3890   -0.3080    3.4690 c3        1 MOL     -0.650429
     90 C31         2.8690   -1.5580    5.2120 c3        1 MOL      0.031414
     91 H36        -0.0000   -3.8270    2.5180 hn        1 MOL      0.246395
     92 H37         0.5050   -1.2120    1.1940 h1        1 MOL      0.099828
     93 H38         2.3840   -0.5520    2.7010 hc        1 MOL     -0.119969
     94 H39         2.8320   -2.7280    3.5870 hc        1 MOL      0.022557
     95 H40         1.2290   -2.7320    4.4370 hc        1 MOL      0.022557
     96 H41         0.8450    0.3980    4.1570 hc        1 MOL      0.151754
     97 H42        -0.0980    0.2340    2.6580 hc        1 MOL      0.151754
     98 H43        -0.4560   -0.8410    3.8910 hc        1 MOL      0.151754
     99 H44         2.3370   -0.7530    5.7100 hc        1 MOL     -0.014067
    100 H45         3.1390   -2.2340    6.0300 hc        1 MOL     -0.014067
    101 H46         3.7660   -1.0870    4.8230 hc        1 MOL     -0.014067
    102 N10         2.3550   -1.9370   -0.0450 n         1 MOL     -0.242155
    103 C32         3.4320   -2.3230   -0.9400 c3        1 MOL      0.240210
    104 C33         4.6990   -1.4950   -0.5830 c         1 MOL      0.400601
    105 O16         4.6200   -0.4500    0.1320 o         1 MOL     -0.465995
    106 C34         2.8480   -2.0220   -2.3550 c3        1 MOL     -0.292203
    107 C35         3.5190   -2.9280   -3.3760 c         1 MOL      0.645145
    108 O17         3.0450   -2.9550   -4.5820 o         1 MOL     -0.698741
    109 O18         4.6160   -3.5070   -3.0980 o         1 MOL     -0.698741
    110 H47         1.8540   -1.1000   -0.2860 hn        1 MOL      0.226729
    111 H48         3.6700   -3.3620   -0.7080 h1        1 MOL      0.025101
    112 H49         3.1100   -0.9840   -2.5340 hc        1 MOL      0.082369
    113 H50         1.8060   -2.3160   -2.4370 hc        1 MOL      0.082369
    114 N11         5.8530   -1.8560   -1.1910 n         1 MOL     -0.491072
    115 C36         7.0770   -1.2210   -0.8180 c3        1 MOL      0.335375
    116 C37         7.1430    0.2970   -0.7770 c         1 MOL      0.357682
    117 O19         7.6930    0.7990    0.2280 o         1 MOL     -0.503115
    118 C38         8.2170   -1.7690   -1.6420 c3        1 MOL     -0.175843
    119 C39         9.5360   -1.3610   -0.9790 ca        1 MOL      0.075773
    120 C40         9.8300   -1.8070    0.3590 ca        1 MOL     -0.194333
    121 C41        10.4000   -0.5680   -1.7070 ca        1 MOL     -0.194333
    122 C42        11.0990   -1.3650    0.9210 ca        1 MOL     -0.085239
    123 C43        11.6280   -0.0780   -1.1610 ca        1 MOL     -0.085239
    124 C44        11.9620   -0.5000    0.1970 ca        1 MOL     -0.158889
    125 H51         5.8840   -2.7540   -1.6530 hn        1 MOL      0.275234
    126 H52         7.1880   -1.5230    0.2230 h1        1 MOL      0.042047
    127 H53         8.2020   -1.4520   -2.6840 hc        1 MOL      0.072755
    128 H54         8.2160   -2.8550   -1.6300 hc        1 MOL      0.072755
    129 H55         9.1400   -2.5260    0.7750 ha        1 MOL      0.123155
    130 H56        10.0340   -0.2110   -2.6640 ha        1 MOL      0.123155
    131 H57        11.3860   -1.7890    1.8770 ha        1 MOL      0.106466
    132 H58        12.2380    0.6120   -1.7330 ha        1 MOL      0.106466
    133 H59        12.8710   -0.1580    0.6650 ha        1 MOL      0.109063
    134 N12         6.5490    1.0830   -1.6730 n         1 MOL     -0.060102
    135 C45         6.5760    2.5280   -1.6290 c3        1 MOL     -0.080200
    136 C46         5.6660    3.1380   -0.4990 c         1 MOL      0.393408
    137 O20         5.9240    4.2810   -0.1640 o         1 MOL     -0.523636
    138 C47         6.1940    2.9990   -3.0890 c3        1 MOL     -0.069662
    139 C48         5.3060    1.8160   -3.5650 c3        1 MOL      0.057705
    140 C49         6.0270    0.6280   -2.9460 c3        1 MOL     -0.149023
    141 H60         7.5720    2.8920   -1.3630 h1        1 MOL      0.081896
    142 H61         5.6650    3.9360   -3.1860 hc        1 MOL      0.041826
    143 H62         7.0740    3.0240   -3.7270 hc        1 MOL      0.041826
    144 H63         4.3210    1.9330   -3.1330 hc        1 MOL      0.010813
    145 H64         5.3370    1.7800   -4.6450 hc        1 MOL      0.010813
    146 H65         5.3020   -0.1900   -2.9470 h1        1 MOL      0.078444
    147 H66         6.8410    0.3310   -3.6070 h1        1 MOL      0.078444
    148 N13         4.6630    2.4030   -0.0180 n         1 MOL     -0.178758
    149 C50         3.7720    2.7090    1.0960 c3        1 MOL     -0.227569
    150 C51         4.4440    2.3120    2.4490 c         1 MOL      0.542726
    151 O21         4.2600    3.0930    3.3580 o         1 MOL     -0.575687
    152 C52         2.4420    1.9660    0.8990 c3        1 MOL      0.194194
    153 C53         1.5480    2.3960   -0.2150 c3        1 MOL     -0.087383
    154 C54         0.3650    1.4820   -0.5280 c         1 MOL      0.806091
    155 O22         0.5570    0.2690   -0.9790 o         1 MOL     -0.794586
    156 O23        -0.8370    1.8600   -0.4390 o         1 MOL     -0.794586
    157 H67         4.6090    1.4480   -0.3340 hn        1 MOL      0.227162
    158 H68         3.6180    3.7810    0.9910 h1        1 MOL      0.125768
    159 H69         1.9420    2.0500    1.8640 hc        1 MOL     -0.004551
    160 H70         2.5820    0.8900    0.7440 hc        1 MOL     -0.004551
    161 H71         2.0630    2.4540   -1.1730 hc        1 MOL      0.004675
    162 H72         1.1200    3.3620    0.0470 hc        1 MOL      0.004675
    163 N14         5.2420    1.2590    2.4490 n         1 MOL     -0.077130
    164 C55         6.1140    0.8510    3.5430 c3        1 MOL     -0.165002
    165 H73         5.8690   -0.1680    3.8420 h1        1 MOL      0.069282
    166 H74         7.1530    0.8930    3.2150 h1        1 MOL      0.069282
    167 H75         5.9720    1.5220    4.3910 h1        1 MOL      0.069282
    168 H76         5.3860    0.7580    1.5830 hn        1 MOL      0.100014
    169 Ca1        -2.0270   -0.1580   -1.2440 Ca        1 MOL      1.713805
    170 O24        -1.1000   -0.0890   -3.6630 oh        1 MOL     -0.809403
    171 H77        -1.2840    0.8410   -3.8140 ho        1 MOL      0.398036
    172 H78        -0.7200   -0.3960   -4.4840 ho        1 MOL      0.398036
    173 O25        -1.0240   -2.5610   -1.8800 oh        1 MOL     -0.809403
    174 H79        -1.1370   -3.2780   -1.2540 ho        1 MOL      0.398036
    175 H80        -0.6640   -2.9850   -2.6630 ho        1 MOL      0.398036
@<TRIPOS>BOND
     1    1    2 1   
     2    1    4 1   
     3    1    5 1   
     4    1    6 1   
     5    2    3 2   
     6    2    7 1   
     7    7    8 1   
     8    7   15 1   
     9    8    9 1   
    10    8   11 1   
    11    8   16 1   
    12    9   10 2   
    13    9   19 1   
    14   11   12 1   
    15   11   17 1   
    16   11   18 1   
    17   12   13 1   
    18   12   14 1   
    19   19   20 1   
    20   19   24 1   
    21   20   21 1   
    22   20   23 1   
    23   20   25 1   
    24   21   22 2   
    25   21   29 1   
    26   23   26 1   
    27   23   27 1   
    28   23   28 1   
    29   29   30 1   
    30   29   37 1   
    31   30   31 1   
    32   30   33 1   
    33   30   38 1   
    34   31   32 2   
    35   31   41 1   
    36   33   34 1   
    37   33   39 1   
    38   33   40 1   
    39   34   35 1   
    40   34   36 1   
    41   41   42 1   
    42   41   45 1   
    43   42   43 1   
    44   42   46 1   
    45   42   47 1   
    46   43   44 2   
    47   43   48 1   
    48   48   49 1   
    49   48   56 1   
    50   49   50 1   
    51   49   52 1   
    52   49   57 1   
    53   50   51 2   
    54   50   62 1   
    55   52   53 1   
    56   52   58 1   
    57   52   59 1   
    58   53   54 1   
    59   53   55 2   
    60   54   60 1   
    61   54   61 1   
    62   62   63 1   
    63   62   66 1   
    64   63   64 1   
    65   63   67 1   
    66   63   68 1   
    67   64   65 2   
    68   64   69 1   
    69   69   70 1   
    70   69   76 1   
    71   70   71 1   
    72   70   73 1   
    73   70   77 1   
    74   71   72 2   
    75   71   83 1   
    76   73   74 1   
    77   73   75 1   
    78   73   78 1   
    79   74   80 1   
    80   74   81 1   
    81   74   82 1   
    82   75   79 1   
    83   83   84 1   
    84   83   91 1   
    85   84   85 1   
    86   84   87 1   
    87   84   92 1   
    88   85   86 2   
    89   85  102 1   
    90   87   88 1   
    91   87   89 1   
    92   87   93 1   
    93   88   90 1   
    94   88   94 1   
    95   88   95 1   
    96   89   96 1   
    97   89   97 1   
    98   89   98 1   
    99   90   99 1   
   100   90  100 1   
   101   90  101 1   
   102  102  103 1   
   103  102  110 1   
   104  103  104 1   
   105  103  106 1   
   106  103  111 1   
   107  104  105 2   
   108  104  114 1   
   109  106  107 1   
   110  106  112 1   
   111  106  113 1   
   112  107  108 1   
   113  107  109 1   
   114  114  115 1   
   115  114  125 1   
   116  115  116 1   
   117  115  118 1   
   118  115  126 1   
   119  116  117 2   
   120  116  134 1   
   121  118  119 1   
   122  118  127 1   
   123  118  128 1   
   124  119  120 ar  
   125  119  121 ar  
   126  120  122 ar  
   127  120  129 1   
   128  121  123 ar  
   129  121  130 1   
   130  122  124 ar  
   131  122  131 1   
   132  123  124 ar  
   133  123  132 1   
   134  124  133 1   
   135  134  135 1   
   136  134  140 1   
   137  135  136 1   
   138  135  138 1   
   139  135  141 1   
   140  136  137 2   
   141  136  148 1   
   142  138  139 1   
   143  138  142 1   
   144  138  143 1   
   145  139  140 1   
   146  139  144 1   
   147  139  145 1   
   148  140  146 1   
   149  140  147 1   
   150  148  149 1   
   151  148  157 1   
   152  149  150 1   
   153  149  152 1   
   154  149  158 1   
   155  150  151 2   
   156  150  163 1   
   157  152  153 1   
   158  152  159 1   
   159  152  160 1   
   160  153  154 1   
   161  153  161 1   
   162  153  162 1   
   163  154  155 1   
   164  154  156 1   
   165  163  164 1   
   166  163  168 1   
   167  164  165 1   
   168  164  166 1   
   169  164  167 1   
   170  170  171 1   
   171  170  172 1   
   172  173  174 1   
   173  173  175 1   
@<TRIPOS>SUBSTRUCTURE
     1 MOL         1 TEMP              0 ****  ****    0 ROOT
