@<TRIPOS>MOLECULE
MOL
  186   183     1     0     0
SMALL
resp


@<TRIPOS>ATOM
      1 C1          1.0740   -1.2090    6.5080 c3        1 MOL     -0.278239
      2 C2          1.3600   -1.2930    4.9820 c         1 MOL      0.729102
      3 O1          0.4780   -1.3290    4.0990 o         1 MOL     -0.616687
      4 H1          1.1280   -0.1700    6.8300 hc        1 MOL      0.065114
      5 H2          0.0780   -1.6020    6.7140 hc        1 MOL      0.065114
      6 H3          1.8150   -1.7960    7.0490 hc        1 MOL      0.065114
      7 N1          2.6160   -1.3130    4.5980 n         1 MOL     -0.640290
      8 C3          3.1410   -1.4500    3.2120 c3        1 MOL      0.308468
      9 C4          3.3030   -2.9060    2.8400 c         1 MOL      0.469068
     10 O2          4.0850   -3.6060    3.4910 o         1 MOL     -0.579101
     11 C5          4.3460   -0.5700    3.0490 c3        1 MOL     -0.243497
     12 C6          4.7470   -0.5000    1.5870 c         1 MOL      0.980264
     13 O3          5.8480    0.0510    1.4030 o         1 MOL     -0.769459
     14 O4          3.9430   -0.7490    0.6740 o         1 MOL     -0.769459
     15 H4          3.2740   -1.1700    5.3560 hn        1 MOL      0.310352
     16 H5          2.4040   -1.0380    2.5200 h1        1 MOL      0.004083
     17 H6          5.0930   -1.0940    3.6410 hc        1 MOL      0.034135
     18 H7          4.2020    0.3890    3.5480 hc        1 MOL      0.034135
     19 N2          2.6080   -3.3850    1.8120 n         1 MOL     -0.291503
     20 C7          2.7640   -4.8210    1.4100 c3        1 MOL      0.013056
     21 C8          4.0100   -5.0320    0.4450 c         1 MOL      0.432421
     22 O5          4.5980   -6.0870    0.5580 o         1 MOL     -0.572351
     23 C9          1.4230   -5.3520    0.8810 c3        1 MOL      0.236800
     24 C10         0.3200   -5.2060    1.9530 c3        1 MOL     -0.208025
     25 C11         1.4780   -6.8140    0.5120 c3        1 MOL     -0.460293
     26 C12        -1.2020   -5.5750    1.7410 c3        1 MOL      0.040846
     27 H8          2.1900   -2.7610    1.1390 hn        1 MOL      0.227354
     28 H9          2.9840   -5.4310    2.2910 h1        1 MOL      0.067050
     29 H10         1.2030   -4.7420    0.0000 hc        1 MOL      0.026065
     30 H11         0.3100   -4.1740    2.3130 hc        1 MOL      0.044698
     31 H12         0.5880   -5.8410    2.7940 hc        1 MOL      0.044698
     32 H13         2.2730   -7.0210   -0.2130 hc        1 MOL      0.105159
     33 H14         1.3590   -7.4340    1.3910 hc        1 MOL      0.105159
     34 H15         0.6020   -7.1610   -0.0250 hc        1 MOL      0.105159
     35 H16        -1.7980   -5.5010    2.6510 hc        1 MOL     -0.002509
     36 H17        -1.7350   -5.0080    0.9830 hc        1 MOL     -0.002509
     37 H18        -1.4160   -6.5840    1.3740 hc        1 MOL     -0.002509
     38 N3          4.2480   -4.1970   -0.5780 n         1 MOL     -0.120982
     39 C13         5.1430   -4.4660   -1.6950 c3        1 MOL      0.082390
     40 C14         6.4370   -3.5450   -1.6440 c         1 MOL      0.361772
     41 O6          7.3160   -3.7620   -2.5460 o         1 MOL     -0.527648
     42 C15         4.3910   -4.3260   -3.0580 c3        1 MOL     -0.275193
     43 C16         3.6730   -2.9480   -3.2970 c         1 MOL      0.898409
     44 O7          3.1450   -2.7050   -4.3980 o         1 MOL     -0.763621
     45 O8          3.6220   -2.1060   -2.4420 o         1 MOL     -0.763621
     46 H19         3.6250   -3.4030   -0.6080 hn        1 MOL      0.083146
     47 H20         5.5910   -5.4520   -1.5530 h1        1 MOL      0.053996
     48 H21         3.6330   -5.1030   -2.9850 hc        1 MOL      0.059990
     49 H22         4.9920   -4.4560   -3.9470 hc        1 MOL      0.059990
     50 N4          6.5840   -2.6210   -0.6950 n         1 MOL     -0.037994
     51 C17         7.7250   -1.8300   -0.4960 c3        1 MOL     -0.086655
     52 C18         7.9470   -0.5400   -1.3340 c         1 MOL      0.549156
     53 O9          8.7570   -0.4480   -2.3120 o         1 MOL     -0.571933
     54 H23         5.8340   -2.5560   -0.0160 hn        1 MOL      0.067342
     55 H24         8.6230   -2.4240   -0.6450 h1        1 MOL      0.033914
     56 H25         7.7540   -1.4660    0.5330 h1        1 MOL      0.033914
     57 N5          7.1460    0.4560   -1.0100 n         1 MOL     -0.274547
     58 C19         7.2020    1.8170   -1.6410 c3        1 MOL      0.060769
     59 C20         7.0150    2.9960   -0.7140 c         1 MOL      0.469840
     60 O10         7.2390    4.1930   -1.1050 o         1 MOL     -0.554893
     61 C21         6.2000    1.9950   -2.8640 c3        1 MOL     -0.249839
     62 C22         4.8520    1.4790   -2.6030 c         1 MOL      0.821616
     63 O11         4.3350    1.5670   -1.4600 o         1 MOL     -0.735098
     64 O12         4.1840    1.0320   -3.5070 o         1 MOL     -0.735098
     65 H26         6.5430    0.3490   -0.1980 hn        1 MOL      0.037001
     66 H27         8.2170    1.9460   -2.0200 h1        1 MOL      0.049573
     67 H28         6.6300    1.5020   -3.7400 hc        1 MOL      0.067677
     68 H29         6.0110    3.0420   -3.0950 hc        1 MOL      0.067677
     69 N6          6.6760    2.7290    0.6010 n         1 MOL     -0.399225
     70 C23         6.5730    3.7210    1.6440 c3        1 MOL     -0.084715
     71 C24         5.1960    4.4030    1.6450 c         1 MOL      0.376901
     72 O13         5.0120    5.4430    2.3130 o         1 MOL     -0.566236
     73 H30         6.4000    1.7930    0.8600 hn        1 MOL      0.370417
     74 H31         7.4410    4.3440    1.4250 h1        1 MOL      0.092646
     75 H32         6.8480    3.3550    2.6360 h1        1 MOL      0.092646
     76 N7          4.2700    3.8530    0.8720 n         1 MOL     -0.007871
     77 C25         2.8610    4.2320    0.9970 c3        1 MOL     -0.005584
     78 C26         1.9340    2.9960    1.0530 c         1 MOL      0.458728
     79 O14         2.1840    1.8040    0.7320 o         1 MOL     -0.573035
     80 C27         2.4400    5.1510   -0.1990 c3        1 MOL      0.006133
     81 C28         3.2800    6.4430   -0.2180 c3        1 MOL     -0.066605
     82 C29         2.5720    7.3970   -1.1660 c         1 MOL      0.539063
     83 N8          2.9780    7.2530   -2.4280 n         1 MOL     -0.771086
     84 O15         1.6530    8.1140   -0.8400 o         1 MOL     -0.547799
     85 H33         4.4610    3.0030    0.3720 hn        1 MOL      0.075221
     86 H34         2.6330    4.6840    1.9620 h1        1 MOL      0.060443
     87 H35         1.3780    5.3890   -0.0660 hc        1 MOL      0.018810
     88 H36         2.5170    4.5630   -1.1080 hc        1 MOL      0.018810
     89 H37         4.2950    6.1880   -0.5400 hc        1 MOL      0.037154
     90 H38         3.3480    6.9160    0.7690 hc        1 MOL      0.037154
     91 H39         3.7630    6.6790   -2.7070 hn        1 MOL      0.356745
     92 H40         2.5490    7.9730   -3.0000 hn        1 MOL      0.356745
     93 N9          0.7140    3.3050    1.4350 n         1 MOL     -0.442490
     94 C30        -0.4850    2.4590    1.6870 c3        1 MOL      0.048807
     95 C31        -1.5380    2.9590    0.7300 c         1 MOL      0.270415
     96 O16        -2.0630    4.0680    0.9650 o         1 MOL     -0.529554
     97 C32        -0.8240    2.6180    3.1890 c3        1 MOL      0.263979
     98 C33        -2.0860    1.8770    3.6350 c3        1 MOL     -0.231709
     99 C34         0.3330    2.0980    4.0750 c3        1 MOL     -0.231709
    100 H41         0.5570    4.2970    1.5100 hn        1 MOL      0.261836
    101 H42        -0.1630    1.4370    1.4930 h1        1 MOL      0.131805
    102 H43        -0.9900    3.6560    3.4790 hc        1 MOL     -0.028199
    103 H44        -2.1010    0.7920    3.5380 hc        1 MOL      0.040879
    104 H45        -2.1580    2.0830    4.7070 hc        1 MOL      0.040879
    105 H46        -2.9350    2.3820    3.1670 hc        1 MOL      0.040879
    106 H47         0.1950    2.3790    5.1180 hc        1 MOL      0.040879
    107 H48         0.3870    1.0170    3.9420 hc        1 MOL      0.040879
    108 H49         1.2690    2.5580    3.7980 hc        1 MOL      0.040879
    109 N10        -1.7290    2.1830   -0.2590 n         1 MOL     -0.073935
    110 C35        -2.8730    2.1240   -0.9790 c3        1 MOL      0.102223
    111 C36        -4.1460    1.8030   -0.1230 c         1 MOL      0.289783
    112 O17        -4.0500    1.0800    0.8660 o         1 MOL     -0.164813
    113 C37        -2.6020    0.9870   -2.0410 c3        1 MOL     -0.522752
    114 C38        -3.6300    0.9860   -3.1260 c         1 MOL      0.796013
    115 N11        -3.2020    0.9340   -4.3870 n         1 MOL     -0.857387
    116 O18        -4.8220    1.0150   -2.9580 o         1 MOL     -0.613436
    117 H50        -1.0810    1.4180   -0.4040 hn        1 MOL      0.184858
    118 H51        -2.9640    3.1060   -1.4530 h1        1 MOL      0.037976
    119 H52        -2.7160    0.0040   -1.5790 hc        1 MOL      0.187936
    120 H53        -1.6560    0.9940   -2.5810 hc        1 MOL      0.187936
    121 H54        -2.2690    0.6090   -4.5640 hn        1 MOL      0.392648
    122 H55        -3.9400    0.9730   -5.0810 hn        1 MOL      0.392648
    123 N12        -5.3350    2.2840   -0.5620 n         1 MOL     -0.477495
    124 C39        -6.6440    1.8550    0.0290 c3        1 MOL      0.073984
    125 C40        -6.7350    0.2910    0.1100 c         1 MOL      0.735580
    126 O19        -7.0030   -0.2200    1.1910 o         1 MOL     -0.594803
    127 C41        -7.7660    2.4910   -0.8080 c3        1 MOL     -0.094311
    128 C42        -9.1260    2.0340   -0.3260 ca        1 MOL     -0.056064
    129 C43        -9.5300    2.5300    0.8630 ca        1 MOL     -0.111323
    130 C44        -9.7650    1.0490   -1.0050 ca        1 MOL     -0.111323
    131 C45       -10.7120    2.0270    1.3910 ca        1 MOL     -0.249599
    132 C46       -11.1110    0.7110   -0.6240 ca        1 MOL     -0.249599
    133 C47       -11.5450    1.2540    0.6020 ca        1 MOL      0.367758
    134 O20       -12.8210    1.0520    0.9710 oh        1 MOL     -0.574410
    135 H56        -5.3480    2.9450   -1.3240 hn        1 MOL      0.303943
    136 H57        -6.7560    2.1700    1.0670 h1        1 MOL      0.053630
    137 H58        -7.6570    2.1270   -1.8250 hc        1 MOL      0.056904
    138 H59        -7.6990    3.5680   -0.9330 hc        1 MOL      0.056904
    139 H60        -8.9350    3.2500    1.4120 ha        1 MOL      0.125001
    140 H61        -9.4160    0.6580   -1.9430 ha        1 MOL      0.125001
    141 H62       -11.0770    2.5230    2.2800 ha        1 MOL      0.132756
    142 H63       -11.6910   -0.0480   -1.1120 ha        1 MOL      0.132756
    143 H64       -13.2610    0.3280    0.5060 ho        1 MOL      0.402268
    144 N13        -6.3490   -0.4600   -0.9820 n         1 MOL     -0.522121
    145 C48        -6.3880   -1.8880   -0.9990 c3        1 MOL      0.098098
    146 C49        -5.3370   -2.5560   -0.0780 c         1 MOL      0.317360
    147 O21        -5.1560   -3.7240    0.0270 o         1 MOL     -0.528405
    148 C50        -6.0470   -2.3930   -2.4210 c3        1 MOL      0.004772
    149 C51        -7.0710   -1.8180   -3.4590 c3        1 MOL     -0.120948
    150 C52        -7.2630   -2.6360   -4.6920 c         1 MOL      0.704111
    151 O22        -6.3060   -3.0140   -5.4540 o         1 MOL     -0.750493
    152 O23        -8.4580   -2.9380   -4.9660 o         1 MOL     -0.750493
    153 H65        -5.9500    0.0220   -1.7760 hn        1 MOL      0.378731
    154 H66        -7.3820   -2.2850   -0.7930 h1        1 MOL      0.070512
    155 H67        -6.0910   -3.4820   -2.3810 hc        1 MOL      0.019607
    156 H68        -5.0550   -2.0210   -2.6810 hc        1 MOL      0.019607
    157 H69        -6.7180   -0.8140   -3.7130 hc        1 MOL     -0.019255
    158 H70        -8.0040   -1.5820   -2.9360 hc        1 MOL     -0.019255
    159 N14        -4.5270   -1.7390    0.6350 n         1 MOL      0.091515
    160 C53        -3.5490   -2.1950    1.6790 c3        1 MOL     -0.069679
    161 C54        -4.0410   -1.6760    3.0520 c         1 MOL      0.360948
    162 O24        -3.8380   -2.4610    4.0120 o         1 MOL     -0.544438
    163 C55        -2.1600   -1.5180    1.3680 c3        1 MOL     -0.015750
    164 C56        -1.5320   -2.0210    0.0420 c3        1 MOL     -0.004738
    165 C57        -0.1800   -1.4150   -0.3300 c         1 MOL      0.615225
    166 O25         0.8090   -2.1470   -0.4340 o         1 MOL     -0.709416
    167 O26        -0.0900   -0.1570   -0.5280 o         1 MOL     -0.709416
    168 H71        -4.6810   -0.7470    0.5310 hn        1 MOL     -0.186644
    169 H72        -3.5480   -3.2810    1.6680 h1        1 MOL      0.116749
    170 H73        -1.3770   -1.7060    2.1030 hc        1 MOL      0.061603
    171 H74        -2.4070   -0.4570    1.3570 hc        1 MOL      0.061603
    172 H75        -2.2080   -1.9530   -0.8070 hc        1 MOL     -0.001355
    173 H76        -1.3080   -3.0820    0.1820 hc        1 MOL     -0.001355
    174 N15        -4.7140   -0.4960    3.1440 n         1 MOL      0.016474
    175 C58        -5.3530   -0.0380    4.3480 c3        1 MOL     -0.214420
    176 H77        -5.0760    1.0000    4.5330 h1        1 MOL      0.067492
    177 H78        -6.4350   -0.1090    4.2360 h1        1 MOL      0.067492
    178 H79        -5.0330   -0.6550    5.1870 h1        1 MOL      0.067492
    179 H80        -4.8550    0.0760    2.3240 hn        1 MOL      0.083240
    180 Ca1         2.4640   -0.1060   -1.2580 Ca        1 MOL      1.752220
    181 O27         1.4790   -0.5230   -3.7880 oh        1 MOL     -0.862740
    182 H81         1.8650   -0.0510   -4.5300 ho        1 MOL      0.414902
    183 H82         1.9560   -1.3560   -3.7580 ho        1 MOL      0.414902
    184 O28         1.5850    2.3110   -2.6970 oh        1 MOL     -0.862740
    185 H83         1.0950    3.0830   -2.9760 ho        1 MOL      0.414902
    186 H84         2.5000    2.5770   -2.7290 ho        1 MOL      0.414902
@<TRIPOS>BOND
     1    1    2 1   
     2    1    4 1   
     3    1    5 1   
     4    1    6 1   
     5    2    3 2   
     6    2    7 1   
     7    7    8 1   
     8    7   15 1   
     9    8    9 1   
    10    8   11 1   
    11    8   16 1   
    12    9   10 2   
    13    9   19 1   
    14   11   12 1   
    15   11   17 1   
    16   11   18 1   
    17   12   13 1   
    18   12   14 1   
    19   19   20 1   
    20   19   27 1   
    21   20   21 1   
    22   20   23 1   
    23   20   28 1   
    24   21   22 2   
    25   21   38 1   
    26   23   24 1   
    27   23   25 1   
    28   23   29 1   
    29   24   26 1   
    30   24   30 1   
    31   24   31 1   
    32   25   32 1   
    33   25   33 1   
    34   25   34 1   
    35   26   35 1   
    36   26   36 1   
    37   26   37 1   
    38   38   39 1   
    39   38   46 1   
    40   39   40 1   
    41   39   42 1   
    42   39   47 1   
    43   40   41 2   
    44   40   50 1   
    45   42   43 1   
    46   42   48 1   
    47   42   49 1   
    48   43   44 1   
    49   43   45 1   
    50   50   51 1   
    51   50   54 1   
    52   51   52 1   
    53   51   55 1   
    54   51   56 1   
    55   52   53 2   
    56   52   57 1   
    57   57   58 1   
    58   57   65 1   
    59   58   59 1   
    60   58   61 1   
    61   58   66 1   
    62   59   60 2   
    63   59   69 1   
    64   61   62 1   
    65   61   67 1   
    66   61   68 1   
    67   62   63 1   
    68   62   64 1   
    69   69   70 1   
    70   69   73 1   
    71   70   71 1   
    72   70   74 1   
    73   70   75 1   
    74   71   72 2   
    75   71   76 1   
    76   76   77 1   
    77   76   85 1   
    78   77   78 1   
    79   77   80 1   
    80   77   86 1   
    81   78   79 2   
    82   78   93 1   
    83   80   81 1   
    84   80   87 1   
    85   80   88 1   
    86   81   82 1   
    87   81   89 1   
    88   81   90 1   
    89   82   83 1   
    90   82   84 2   
    91   83   91 1   
    92   83   92 1   
    93   93   94 1   
    94   93  100 1   
    95   94   95 1   
    96   94   97 1   
    97   94  101 1   
    98   95   96 2   
    99   95  109 1   
   100   97   98 1   
   101   97   99 1   
   102   97  102 1   
   103   98  103 1   
   104   98  104 1   
   105   98  105 1   
   106   99  106 1   
   107   99  107 1   
   108   99  108 1   
   109  109  110 1   
   110  109  117 1   
   111  110  111 1   
   112  110  113 1   
   113  110  118 1   
   114  111  112 2   
   115  111  123 1   
   116  113  114 1   
   117  113  119 1   
   118  113  120 1   
   119  114  115 1   
   120  114  116 2   
   121  115  121 1   
   122  115  122 1   
   123  123  124 1   
   124  123  135 1   
   125  124  125 1   
   126  124  127 1   
   127  124  136 1   
   128  125  126 2   
   129  125  144 1   
   130  127  128 1   
   131  127  137 1   
   132  127  138 1   
   133  128  129 ar  
   134  128  130 ar  
   135  129  131 ar  
   136  129  139 1   
   137  130  132 ar  
   138  130  140 1   
   139  131  133 ar  
   140  131  141 1   
   141  132  133 ar  
   142  132  142 1   
   143  133  134 1   
   144  134  143 1   
   145  144  145 1   
   146  144  153 1   
   147  145  146 1   
   148  145  148 1   
   149  145  154 1   
   150  146  147 2   
   151  146  159 1   
   152  148  149 1   
   153  148  155 1   
   154  148  156 1   
   155  149  150 1   
   156  149  157 1   
   157  149  158 1   
   158  150  151 1   
   159  150  152 1   
   160  159  160 1   
   161  159  168 1   
   162  160  161 1   
   163  160  163 1   
   164  160  169 1   
   165  161  162 2   
   166  161  174 1   
   167  163  164 1   
   168  163  170 1   
   169  163  171 1   
   170  164  165 1   
   171  164  172 1   
   172  164  173 1   
   173  165  166 1   
   174  165  167 1   
   175  174  175 1   
   176  174  179 1   
   177  175  176 1   
   178  175  177 1   
   179  175  178 1   
   180  181  182 1   
   181  181  183 1   
   182  184  185 1   
   183  184  186 1   
@<TRIPOS>SUBSTRUCTURE
     1 MOL         1 TEMP              0 ****  ****    0 ROOT
