@<TRIPOS>MOLECULE
MOL
  175   173     1     0     0
SMALL
resp


@<TRIPOS>ATOM
      1 C1          0.6760    3.7120    5.9230 c3        1 MOL     -0.336434
      2 C2          0.3080    3.8020    4.4730 c         1 MOL      0.749295
      3 O1          1.1730    3.8880    3.6010 o         1 MOL     -0.554960
      4 H1          1.7010    3.3520    6.0170 hc        1 MOL      0.077010
      5 H2          0.5950    4.6980    6.3810 hc        1 MOL      0.077010
      6 H3          0.0010    3.0220    6.4280 hc        1 MOL      0.077010
      7 N1         -0.9760    3.7820    4.2100 n         1 MOL     -0.677971
      8 C3         -1.5340    3.5960    2.8310 c3        1 MOL      0.189910
      9 C4         -1.2160    4.7210    1.8080 c         1 MOL      0.622049
     10 O2         -0.8850    5.8950    2.1720 o         1 MOL     -0.555790
     11 C5         -3.0440    3.2270    2.9300 c3        1 MOL     -0.329407
     12 C6         -3.7990    2.8160    1.6360 c         1 MOL      0.573835
     13 O3         -4.9860    3.1420    1.5600 o         1 MOL     -0.621149
     14 O4         -3.3150    2.1590    0.6890 o         1 MOL     -0.621149
     15 H4         -1.6190    3.6240    4.9670 hn        1 MOL      0.339797
     16 H5         -1.1110    2.7110    2.3680 h1        1 MOL     -0.031935
     17 H6         -3.5190    4.1600    3.2460 hc        1 MOL      0.080526
     18 H7         -3.1990    2.4930    3.7220 hc        1 MOL      0.080526
     19 N2         -1.5130    4.3650    0.5320 n         1 MOL     -0.778320
     20 C7         -1.4630    5.2800   -0.6380 c3        1 MOL      0.178661
     21 C8         -2.4640    5.0080   -1.7680 c         1 MOL      0.485529
     22 O5         -2.5450    5.8130   -2.6900 o         1 MOL     -0.566555
     23 C9         -0.0430    5.2510   -1.1710 c3        1 MOL     -0.247037
     24 H8         -1.6510    3.4090    0.2130 hn        1 MOL      0.908371
     25 H9         -1.6750    6.3170   -0.3710 h1        1 MOL      0.045207
     26 H10         0.5710    5.5990   -0.3380 hc        1 MOL      0.063193
     27 H11         0.2060    4.2160   -1.3730 hc        1 MOL      0.063193
     28 H12         0.0430    5.8300   -2.0900 hc        1 MOL      0.063193
     29 N3         -3.2830    3.9410   -1.7100 n         1 MOL     -0.314449
     30 C10        -4.2050    3.6820   -2.7240 c3        1 MOL      0.134019
     31 C11        -5.5150    2.9500   -2.3270 c         1 MOL      0.400061
     32 O6         -6.3200    2.7380   -3.2160 o         1 MOL     -0.556244
     33 C12        -3.4800    2.8350   -3.7860 c3        1 MOL     -0.094883
     34 C13        -2.9630    1.4730   -3.2530 c         1 MOL      0.660662
     35 O7         -3.5240    0.8680   -2.2780 o         1 MOL     -0.683157
     36 O8         -1.8890    0.9930   -3.8590 o         1 MOL     -0.683157
     37 H13        -3.1160    3.2590   -0.9780 hn        1 MOL     -0.066778
     38 H14        -4.5470    4.5470   -3.2840 h1        1 MOL      0.061709
     39 H15        -2.6720    3.3460   -4.3030 hc        1 MOL      0.021552
     40 H16        -4.2360    2.5610   -4.5230 hc        1 MOL      0.021552
     41 N4         -5.7370    2.5850   -1.0650 n         1 MOL     -0.335686
     42 C14        -6.9710    1.8860   -0.4950 c3        1 MOL     -0.033054
     43 C15        -7.2550    0.4430   -0.9310 c         1 MOL      0.450353
     44 O9         -8.2990   -0.0170   -0.6650 o         1 MOL     -0.587824
     45 H17        -5.0060    2.9100   -0.4530 hn        1 MOL      0.251342
     46 H18        -7.9030    2.4250   -0.5970 h1        1 MOL      0.074181
     47 H19        -6.8890    1.8320    0.5910 h1        1 MOL      0.074181
     48 N5         -6.3650   -0.2260   -1.6250 n         1 MOL     -0.207029
     49 C16        -6.4010   -1.5630   -2.1740 c3        1 MOL     -0.029680
     50 C17        -6.5210   -2.7030   -1.1390 c         1 MOL      0.461290
     51 O10        -6.7300   -3.8310   -1.5900 o         1 MOL     -0.533421
     52 C18        -5.2460   -1.7720   -3.0890 c3        1 MOL     -0.224845
     53 C19        -3.9370   -1.9140   -2.3080 c         1 MOL      0.616846
     54 N6         -2.8560   -1.8570   -3.0030 n         1 MOL     -0.753279
     55 O11        -3.8440   -2.0180   -1.0970 o         1 MOL     -0.416277
     56 H20        -5.5160    0.2720   -1.8160 hn        1 MOL      0.240118
     57 H21        -7.2580   -1.6510   -2.8450 h1        1 MOL      0.092973
     58 H22        -5.1570   -0.9580   -3.8160 hc        1 MOL      0.079216
     59 H23        -5.4030   -2.6980   -3.6320 hc        1 MOL      0.079216
     60 H24        -2.7910   -1.7230   -4.0060 hn        1 MOL      0.373867
     61 H25        -1.9910   -2.0160   -2.5090 hn        1 MOL      0.373867
     62 N7         -6.3060   -2.4840    0.1840 n         1 MOL     -0.283991
     63 C20        -6.4020   -3.5230    1.1940 c3        1 MOL     -0.186220
     64 C21        -5.2010   -4.4710    1.4750 c         1 MOL      0.542505
     65 O12        -5.3820   -5.4100    2.2330 o         1 MOL     -0.587567
     66 H26        -5.9820   -1.5850    0.4980 hn        1 MOL      0.237757
     67 H27        -7.1790   -4.2460    0.9380 h1        1 MOL      0.093919
     68 H28        -6.7410   -3.0650    2.1230 h1        1 MOL      0.093919
     69 N8         -4.0970   -4.1880    0.8060 n         1 MOL     -0.162587
     70 C22        -2.7470   -4.5580    1.1600 c3        1 MOL     -0.124127
     71 C23        -1.7390   -3.4470    1.3800 c         1 MOL      0.506076
     72 O13        -1.8800   -2.4150    0.6830 o         1 MOL     -0.688212
     73 C24        -2.0460   -5.5060    0.1230 c3        1 MOL      0.657637
     74 C25        -2.6730   -6.8940    0.1660 c3        1 MOL     -0.469298
     75 O14        -2.1020   -4.9930   -1.1600 oh        1 MOL     -0.636738
     76 H29        -4.1860   -3.5370    0.0460 hn        1 MOL      0.109061
     77 H30        -2.7300   -5.1010    2.1010 h1        1 MOL      0.043638
     78 H31        -0.9840   -5.5980    0.3660 h1        1 MOL     -0.088200
     79 H32        -1.8270   -4.0760   -1.0770 ho        1 MOL      0.373258
     80 H33        -3.7420   -6.7160    0.0520 hc        1 MOL      0.105940
     81 H34        -2.2850   -7.4970   -0.6550 hc        1 MOL      0.105940
     82 H35        -2.3840   -7.2610    1.1610 hc        1 MOL      0.105940
     83 N9         -0.6900   -3.6910    2.1770 n         1 MOL     -0.480958
     84 C26         0.4680   -2.8980    2.1350 c3        1 MOL      0.059968
     85 C27         1.3200   -3.3210    0.8930 c         1 MOL      0.425980
     86 O15         1.7960   -4.4670    0.7080 o         1 MOL     -0.591247
     87 C28         1.2230   -3.0730    3.4490 c3        1 MOL      0.043678
     88 C29         0.3550   -2.5670    4.5960 c3        1 MOL      0.067328
     89 C30         2.6450   -2.4330    3.4080 c3        1 MOL     -0.051373
     90 C31         0.9460   -2.6140    6.0180 c3        1 MOL     -0.196952
     91 H36        -0.6530   -4.5900    2.6420 hn        1 MOL      0.296924
     92 H37         0.3510   -1.8170    2.0590 h1        1 MOL      0.081879
     93 H38         1.3630   -4.1540    3.5790 hc        1 MOL     -0.009601
     94 H39        -0.6010   -3.0960    4.6460 hc        1 MOL     -0.019500
     95 H40         0.0370   -1.5640    4.3070 hc        1 MOL     -0.019500
     96 H41         2.5580   -1.3460    3.4910 hc        1 MOL      0.006545
     97 H42         3.1570   -2.7570    4.3100 hc        1 MOL      0.006545
     98 H43         3.2770   -2.7000    2.5600 hc        1 MOL      0.006545
     99 H44         1.8850   -2.0520    6.0520 hc        1 MOL      0.046022
    100 H45         0.2760   -2.2870    6.8220 hc        1 MOL      0.046022
    101 H46         1.1020   -3.6070    6.4470 hc        1 MOL      0.046022
    102 N10         1.6120   -2.3440    0.0830 n         1 MOL     -0.140479
    103 C32         2.4570   -2.3800   -1.0970 c3        1 MOL      0.071870
    104 C33         3.9240   -1.8510   -0.7670 c         1 MOL      0.487027
    105 O16         4.2210   -1.4310    0.3690 o         1 MOL     -0.439330
    106 C34         1.8450   -1.5380   -2.2010 c3        1 MOL     -0.311781
    107 C35         0.3370   -1.7080   -2.3750 c         1 MOL      0.724611
    108 O17        -0.5300   -1.1910   -1.5410 o         1 MOL     -0.664045
    109 O18        -0.0670   -2.5240   -3.2660 o         1 MOL     -0.664045
    110 H47         1.1670   -1.4690    0.2920 hn        1 MOL      0.278170
    111 H48         2.6410   -3.4160   -1.3760 h1        1 MOL      0.076087
    112 H49         2.3540   -1.8120   -3.1260 hc        1 MOL      0.071028
    113 H50         1.9980   -0.4690   -2.0280 hc        1 MOL      0.071028
    114 N11         4.7450   -1.6870   -1.8280 n         1 MOL     -0.798011
    115 C36         6.1560   -1.4630   -1.5270 c3        1 MOL      0.613411
    116 C37         6.4650   -0.0160   -1.1990 c         1 MOL      0.096286
    117 O19         7.2140    0.1600   -0.2240 o         1 MOL     -0.435663
    118 C38         7.0480   -1.9230   -2.7010 c3        1 MOL     -0.273467
    119 C39         8.5290   -1.7690   -2.4150 ca        1 MOL      0.158860
    120 C40         9.0970   -2.2880   -1.1750 ca        1 MOL     -0.167233
    121 C41         9.4540   -1.3150   -3.3760 ca        1 MOL     -0.167233
    122 C42        10.4650   -2.2740   -0.8850 ca        1 MOL     -0.139405
    123 C43        10.8790   -1.3790   -3.1300 ca        1 MOL     -0.139405
    124 C44        11.3930   -1.8160   -1.8780 ca        1 MOL     -0.099016
    125 H51         4.5080   -2.2100   -2.6690 hn        1 MOL      0.370827
    126 H52         6.2610   -2.1670   -0.6950 h1        1 MOL      0.031450
    127 H53         6.7540   -1.2830   -3.5290 hc        1 MOL      0.066166
    128 H54         6.8340   -2.9450   -3.0100 hc        1 MOL      0.066166
    129 H55         8.4460   -2.7050   -0.4200 ha        1 MOL      0.106976
    130 H56         9.0500   -0.9010   -4.2950 ha        1 MOL      0.106976
    131 H57        10.8540   -2.5600    0.0840 ha        1 MOL      0.119901
    132 H58        11.5950   -0.9720   -3.8360 ha        1 MOL      0.119901
    133 H59        12.4570   -1.7840   -1.6910 ha        1 MOL      0.102812
    134 N12         5.9240    1.1200   -1.8210 n         1 MOL      0.075481
    135 C45         6.1800    2.4900   -1.3490 c3        1 MOL     -0.097908
    136 C46         5.5910    2.6830    0.1020 c         1 MOL      0.321424
    137 O20         6.1520    3.3680    0.9600 o         1 MOL     -0.489747
    138 C47         5.4340    3.4210   -2.2670 c3        1 MOL      0.198645
    139 C48         5.3500    2.6710   -3.5840 c3        1 MOL     -0.044180
    140 C49         5.3410    1.2370   -3.1510 c3        1 MOL     -0.148319
    141 H60         7.2410    2.7180   -1.4670 h1        1 MOL      0.073037
    142 H61         4.4880    3.7790   -1.8560 hc        1 MOL     -0.025165
    143 H62         6.0230    4.3300   -2.4140 hc        1 MOL     -0.025165
    144 H63         4.5430    3.1590   -4.1300 hc        1 MOL      0.023010
    145 H64         6.2330    2.7880   -4.2110 hc        1 MOL      0.023010
    146 H65         4.2810    1.0630   -2.9670 h1        1 MOL      0.069464
    147 H66         5.7370    0.5150   -3.8540 h1        1 MOL      0.069464
    148 N13         4.5050    1.9400    0.4690 n         1 MOL     -0.119936
    149 C50         3.9110    1.9820    1.8160 c3        1 MOL     -0.069880
    150 C51         4.7140    1.1970    2.9590 c         1 MOL      0.467588
    151 O21         4.9020    1.7240    4.0410 o         1 MOL     -0.533731
    152 C52         2.4890    1.4290    1.7400 c3        1 MOL     -0.072302
    153 C53         1.5250    2.0650    0.6340 c3        1 MOL     -0.216868
    154 C54         0.1990    1.3780    0.3980 c         1 MOL      0.924669
    155 O22         0.0970    0.2530    0.9290 o         1 MOL     -0.851093
    156 O23        -0.5750    1.7870   -0.4810 o         1 MOL     -0.851093
    157 H67         4.1230    1.2180   -0.1240 hn        1 MOL      0.215580
    158 H68         3.8700    3.0110    2.1660 h1        1 MOL      0.115873
    159 H69         2.1130    1.4850    2.7600 hc        1 MOL      0.039984
    160 H70         2.5370    0.3520    1.5570 hc        1 MOL      0.039984
    161 H71         2.0350    2.0850   -0.3220 hc        1 MOL      0.029812
    162 H72         1.2770    3.0630    1.0090 hc        1 MOL      0.029812
    163 N14         5.2880   -0.0370    2.6600 n         1 MOL     -0.127801
    164 C55         6.4140   -0.6520    3.4340 c3        1 MOL     -0.146247
    165 H73         7.0910    0.1330    3.7730 h1        1 MOL      0.064447
    166 H74         6.0140   -1.1840    4.2970 h1        1 MOL      0.064447
    167 H75         6.9570   -1.3480    2.7950 h1        1 MOL      0.064447
    168 H76         5.0070   -0.5160    1.8120 hn        1 MOL      0.112479
    169 Ca1        -2.3160   -0.0320   -0.1630 Ca        1 MOL      1.652638
    170 O24        -2.2470   -0.2560    2.5800 oh        1 MOL     -0.749582
    171 H77        -2.6130   -0.2560    3.4710 ho        1 MOL      0.382258
    172 H78        -1.3050   -0.2640    2.7030 ho        1 MOL      0.382258
    173 O25        -4.9280   -0.0420    1.1280 oh        1 MOL     -0.749582
    174 H79        -5.2520   -0.3310    1.9760 ho        1 MOL      0.382258
    175 H80        -5.0000    0.9140    1.1520 ho        1 MOL      0.382258
@<TRIPOS>BOND
     1    1    2 1   
     2    1    4 1   
     3    1    5 1   
     4    1    6 1   
     5    2    3 2   
     6    2    7 1   
     7    7    8 1   
     8    7   15 1   
     9    8    9 1   
    10    8   11 1   
    11    8   16 1   
    12    9   10 2   
    13    9   19 1   
    14   11   12 1   
    15   11   17 1   
    16   11   18 1   
    17   12   13 1   
    18   12   14 1   
    19   19   20 1   
    20   19   24 1   
    21   20   21 1   
    22   20   23 1   
    23   20   25 1   
    24   21   22 2   
    25   21   29 1   
    26   23   26 1   
    27   23   27 1   
    28   23   28 1   
    29   29   30 1   
    30   29   37 1   
    31   30   31 1   
    32   30   33 1   
    33   30   38 1   
    34   31   32 2   
    35   31   41 1   
    36   33   34 1   
    37   33   39 1   
    38   33   40 1   
    39   34   35 1   
    40   34   36 1   
    41   41   42 1   
    42   41   45 1   
    43   42   43 1   
    44   42   46 1   
    45   42   47 1   
    46   43   44 2   
    47   43   48 1   
    48   48   49 1   
    49   48   56 1   
    50   49   50 1   
    51   49   52 1   
    52   49   57 1   
    53   50   51 2   
    54   50   62 1   
    55   52   53 1   
    56   52   58 1   
    57   52   59 1   
    58   53   54 1   
    59   53   55 2   
    60   54   60 1   
    61   54   61 1   
    62   62   63 1   
    63   62   66 1   
    64   63   64 1   
    65   63   67 1   
    66   63   68 1   
    67   64   65 2   
    68   64   69 1   
    69   69   70 1   
    70   69   76 1   
    71   70   71 1   
    72   70   73 1   
    73   70   77 1   
    74   71   72 2   
    75   71   83 1   
    76   73   74 1   
    77   73   75 1   
    78   73   78 1   
    79   74   80 1   
    80   74   81 1   
    81   74   82 1   
    82   75   79 1   
    83   83   84 1   
    84   83   91 1   
    85   84   85 1   
    86   84   87 1   
    87   84   92 1   
    88   85   86 2   
    89   85  102 1   
    90   87   88 1   
    91   87   89 1   
    92   87   93 1   
    93   88   90 1   
    94   88   94 1   
    95   88   95 1   
    96   89   96 1   
    97   89   97 1   
    98   89   98 1   
    99   90   99 1   
   100   90  100 1   
   101   90  101 1   
   102  102  103 1   
   103  102  110 1   
   104  103  104 1   
   105  103  106 1   
   106  103  111 1   
   107  104  105 2   
   108  104  114 1   
   109  106  107 1   
   110  106  112 1   
   111  106  113 1   
   112  107  108 1   
   113  107  109 1   
   114  114  115 1   
   115  114  125 1   
   116  115  116 1   
   117  115  118 1   
   118  115  126 1   
   119  116  117 2   
   120  116  134 1   
   121  118  119 1   
   122  118  127 1   
   123  118  128 1   
   124  119  120 ar  
   125  119  121 ar  
   126  120  122 ar  
   127  120  129 1   
   128  121  123 ar  
   129  121  130 1   
   130  122  124 ar  
   131  122  131 1   
   132  123  124 ar  
   133  123  132 1   
   134  124  133 1   
   135  134  135 1   
   136  134  140 1   
   137  135  136 1   
   138  135  138 1   
   139  135  141 1   
   140  136  137 2   
   141  136  148 1   
   142  138  139 1   
   143  138  142 1   
   144  138  143 1   
   145  139  140 1   
   146  139  144 1   
   147  139  145 1   
   148  140  146 1   
   149  140  147 1   
   150  148  149 1   
   151  148  157 1   
   152  149  150 1   
   153  149  152 1   
   154  149  158 1   
   155  150  151 2   
   156  150  163 1   
   157  152  153 1   
   158  152  159 1   
   159  152  160 1   
   160  153  154 1   
   161  153  161 1   
   162  153  162 1   
   163  154  155 1   
   164  154  156 1   
   165  163  164 1   
   166  163  168 1   
   167  164  165 1   
   168  164  166 1   
   169  164  167 1   
   170  170  171 1   
   171  170  172 1   
   172  173  174 1   
   173  173  175 1   
@<TRIPOS>SUBSTRUCTURE
     1 MOL         1 TEMP              0 ****  ****    0 ROOT
