@<TRIPOS>MOLECULE
MOL
  189   185     1     0     0
SMALL
resp


@<TRIPOS>ATOM
      1 C1         -0.3580    2.2590    6.1750 c3        1 MOL     -0.368816
      2 C2         -0.5700    2.0880    4.6630 c         1 MOL      0.744293
      3 O1          0.0730    2.8030    3.9050 o         1 MOL     -0.625722
      4 H1         -0.7490    1.3850    6.6970 hc        1 MOL      0.093192
      5 H2          0.7070    2.3600    6.3840 hc        1 MOL      0.093192
      6 H3         -0.8830    3.1510    6.5180 hc        1 MOL      0.093192
      7 N1         -1.5670    1.3170    4.2580 n         1 MOL     -0.765972
      8 C3         -2.0550    1.3150    2.8610 c3        1 MOL      0.523325
      9 C4         -2.5980    2.7370    2.5600 c         1 MOL      0.455155
     10 O2         -3.4410    3.2870    3.2360 o         1 MOL     -0.528277
     11 C5         -3.2170    0.3460    2.7530 c3        1 MOL     -0.558123
     12 C6         -3.9970    0.2940    1.4370 c         1 MOL      0.961475
     13 O3         -5.1140   -0.2030    1.3870 o         1 MOL     -0.700623
     14 O4         -3.4570    0.7580    0.4040 o         1 MOL     -0.700623
     15 H4         -2.1160    1.0410    5.0610 hn        1 MOL      0.365615
     16 H5         -1.2570    1.0470    2.1610 h1        1 MOL     -0.045251
     17 H6         -3.9500    0.5680    3.5450 hc        1 MOL      0.101948
     18 H7         -2.7290   -0.6150    2.8730 hc        1 MOL      0.101948
     19 N2         -1.9410    3.2760    1.4690 n         1 MOL     -0.182278
     20 C7         -2.0630    4.7150    1.0600 c3        1 MOL     -0.110236
     21 C8         -3.1970    5.0270    0.0670 c         1 MOL      0.475710
     22 O5         -3.7370    6.1410   -0.0320 o         1 MOL     -0.585104
     23 C9         -0.7060    5.0850    0.5150 c3        1 MOL     -0.030024
     24 C10        -0.5560    6.5900    0.1660 c3        1 MOL     -0.152321
     25 C11         0.9500    6.8960   -0.0630 c3        1 MOL     -0.309408
     26 C12         1.6550    7.2290    1.2450 c3        1 MOL     -0.003689
     27 N3          1.2630    8.4730    1.9850 n4        1 MOL     -0.320720
     28 H8         -1.2310    2.7480    0.9950 hn        1 MOL      0.114433
     29 H9         -2.1730    5.3960    1.8970 h1        1 MOL      0.078870
     30 H10        -0.5090    4.4740   -0.3710 hc        1 MOL      0.112764
     31 H11         0.0500    4.7830    1.2440 hc        1 MOL      0.112764
     32 H12        -0.9700    7.2240    0.9490 hc        1 MOL      0.089545
     33 H13        -0.9700    6.6570   -0.8350 hc        1 MOL      0.089545
     34 H14         0.9870    7.7430   -0.7500 hc        1 MOL      0.121743
     35 H15         1.3950    6.0380   -0.5550 hc        1 MOL      0.121743
     36 H16         2.6950    7.4360    1.0020 hx        1 MOL      0.101887
     37 H17         1.7110    6.3290    1.8540 hx        1 MOL      0.101887
     38 H18         1.8610    8.6730    2.7660 hn        1 MOL      0.324418
     39 H19         1.1110    9.2170    1.3230 hn        1 MOL      0.324418
     40 H20         0.2800    8.4240    2.1960 hn        1 MOL      0.324418
     41 N4         -3.4910    4.0000   -0.7340 n         1 MOL     -0.157020
     42 C13        -4.4190    4.0560   -1.8330 c3        1 MOL     -0.066620
     43 C14        -5.6470    3.2250   -1.8320 c         1 MOL      0.552367
     44 O6         -6.5470    3.5950   -2.5500 o         1 MOL     -0.523659
     45 C15        -3.6910    3.7700   -3.1360 c3        1 MOL     -0.182930
     46 C16        -2.8970    2.4730   -3.2760 c         1 MOL      0.695392
     47 O7         -2.7010    1.9880   -4.3960 o         1 MOL     -0.646805
     48 O8         -2.3180    1.9580   -2.2990 o         1 MOL     -0.646805
     49 H21        -2.9910    3.1240   -0.6480 hn        1 MOL      0.065637
     50 H22        -4.7600    5.0850   -1.9200 h1        1 MOL      0.111962
     51 H23        -2.8730    4.4810   -3.2730 hc        1 MOL      0.051919
     52 H24        -4.3840    3.8920   -3.9750 hc        1 MOL      0.051919
     53 N5         -5.9240    2.3500   -0.7760 n         1 MOL     -0.250499
     54 C17        -7.2550    1.8520   -0.3060 c3        1 MOL     -0.309036
     55 C18        -7.7640    0.6260   -0.9840 c         1 MOL      0.556351
     56 O9         -8.9590    0.5210   -1.2450 o         1 MOL     -0.579595
     57 H25        -5.1160    1.9680   -0.3090 hn        1 MOL      0.141843
     58 H26        -7.8660    2.6910   -0.6390 h1        1 MOL      0.144916
     59 H27        -7.3500    1.6750    0.7620 h1        1 MOL      0.144916
     60 N6         -6.7980   -0.1930   -1.3840 n         1 MOL     -0.190561
     61 C19        -6.9630   -1.4950   -2.0990 c3        1 MOL     -0.099393
     62 C20        -6.9320   -2.6950   -1.1180 c         1 MOL      0.440517
     63 O10        -7.0850   -3.8350   -1.5440 o         1 MOL     -0.515577
     64 C21        -5.9540   -1.7040   -3.1680 c3        1 MOL     -0.083961
     65 C22        -4.4950   -1.6260   -2.6730 c         1 MOL      0.683584
     66 O11        -4.2150   -1.7500   -1.4070 o         1 MOL     -0.717818
     67 O12        -3.6130   -1.2930   -3.4550 o         1 MOL     -0.717818
     68 H28        -5.8400    0.0670   -1.2450 hn        1 MOL      0.149203
     69 H29        -7.9630   -1.4490   -2.5350 h1        1 MOL      0.117209
     70 H30        -6.2380   -0.9560   -3.9030 hc        1 MOL      0.052012
     71 H31        -6.1050   -2.6620   -3.6650 hc        1 MOL      0.052012
     72 N7         -6.7740   -2.4080    0.1950 n         1 MOL     -0.346641
     73 C23        -6.8120   -3.3360    1.3660 c3        1 MOL     -0.048960
     74 C24        -5.5300   -4.1150    1.5990 c         1 MOL      0.492248
     75 O13        -5.5490   -5.1060    2.3120 o         1 MOL     -0.558080
     76 H32        -6.5680   -1.4520    0.4240 hn        1 MOL      0.284917
     77 H33        -7.6220   -4.0640    1.2500 h1        1 MOL      0.081645
     78 H34        -7.1130   -2.7250    2.2110 h1        1 MOL      0.081645
     79 N8         -4.4180   -3.6100    1.0580 n         1 MOL     -0.106636
     80 C25        -3.0760   -4.2970    0.9860 c3        1 MOL     -0.376878
     81 C26        -1.8370   -3.3940    0.8220 c         1 MOL      0.887249
     82 O14        -1.8730   -2.2510    0.4260 o         1 MOL     -0.702305
     83 C27        -3.0110   -5.1510   -0.2320 c3        1 MOL      0.511658
     84 C28        -3.7820   -6.3990   -0.1900 c3        1 MOL     -0.522287
     85 O15        -3.5130   -4.4630   -1.3440 oh        1 MOL     -0.627901
     86 H35        -4.5680   -2.7060    0.6310 hn        1 MOL      0.074947
     87 H36        -2.9270   -4.9310    1.8640 h1        1 MOL      0.130622
     88 H37        -1.9720   -5.3900   -0.4850 h1        1 MOL     -0.031164
     89 H38        -3.9220   -3.6800   -0.9770 ho        1 MOL      0.430526
     90 H39        -4.8570   -6.2340   -0.2560 hc        1 MOL      0.132777
     91 H40        -3.6150   -6.9440   -1.1160 hc        1 MOL      0.132777
     92 H41        -3.4490   -7.0970    0.5790 hc        1 MOL      0.132777
     93 N9         -0.7330   -3.9980    1.2320 n         1 MOL     -0.706782
     94 C29         0.5420   -3.3740    1.4420 c3        1 MOL      0.306985
     95 C30         1.5550   -3.8060    0.2950 c         1 MOL      0.371222
     96 O16         1.5850   -4.9300   -0.1680 o         1 MOL     -0.534566
     97 C31         1.0820   -3.5350    2.8910 c3        1 MOL     -0.067086
     98 C32         0.3310   -2.4940    3.8130 c3        1 MOL      0.080653
     99 C33         2.6490   -3.2840    3.0660 c3        1 MOL     -0.180911
    100 C34         0.8700   -2.4740    5.2950 c3        1 MOL     -0.300497
    101 H42        -0.7120   -4.9430    1.5630 hn        1 MOL      0.323107
    102 H43         0.3380   -2.3080    1.2930 h1        1 MOL      0.023934
    103 H44         0.7330   -4.5140    3.2290 hc        1 MOL      0.041749
    104 H45        -0.7450   -2.6630    3.8270 hc        1 MOL      0.022057
    105 H46         0.4310   -1.5080    3.3630 hc        1 MOL      0.022057
    106 H47         2.8400   -2.3350    2.5530 hc        1 MOL      0.046138
    107 H48         2.9520   -3.3660    4.1040 hc        1 MOL      0.046138
    108 H49         3.3140   -4.0120    2.5990 hc        1 MOL      0.046138
    109 H50         1.2340   -3.4440    5.6210 hc        1 MOL      0.076760
    110 H51         1.7080   -1.7810    5.4020 hc        1 MOL      0.076760
    111 H52         0.0970   -2.2270    6.0250 hc        1 MOL      0.076760
    112 N10         2.4960   -2.9310   -0.0820 n         1 MOL      0.092376
    113 C35         3.5450   -2.9970   -1.1270 c3        1 MOL     -0.008466
    114 C36         4.9420   -2.9080   -0.4250 c         1 MOL      0.235717
    115 O17         5.0210   -2.5980    0.7650 o         1 MOL     -0.292279
    116 C37         3.4600   -1.9530   -2.2360 c3        1 MOL      0.287041
    117 C38         2.3890   -2.2780   -3.2760 c3        1 MOL     -0.048595
    118 O18         3.2320   -0.6960   -1.6640 oh        1 MOL     -0.591162
    119 H53         2.4630   -2.0410    0.3870 hn        1 MOL     -0.182993
    120 H54         3.6060   -3.9460   -1.6610 h1        1 MOL      0.043384
    121 H55         4.4540   -1.9490   -2.6740 h1        1 MOL     -0.041075
    122 H56         2.2860   -0.6070   -1.4720 ho        1 MOL      0.359781
    123 H57         1.6300   -2.9340   -2.8480 hc        1 MOL      0.007974
    124 H58         1.9280   -1.3730   -3.6560 hc        1 MOL      0.007974
    125 H59         2.8580   -2.7140   -4.1570 hc        1 MOL      0.007974
    126 N11         5.9930   -3.1950   -1.2440 n         1 MOL     -0.136423
    127 C39         7.3870   -2.8890   -0.7770 c3        1 MOL     -0.412592
    128 C40         7.5740   -1.4420   -0.1610 c         1 MOL      0.435399
    129 O19         8.2370   -1.2160    0.8560 o         1 MOL     -0.460311
    130 C41         8.4480   -3.0830   -1.8720 c3        1 MOL      0.404161
    131 C42         8.6260   -4.5450   -2.3440 c3        1 MOL     -0.344925
    132 O20         8.1320   -2.2990   -2.9150 oh        1 MOL     -0.655495
    133 H60         5.8630   -3.7900   -2.0430 hn        1 MOL      0.272558
    134 H61         7.6360   -3.6060    0.0040 h1        1 MOL      0.181992
    135 H62         9.4380   -2.7380   -1.5780 h1        1 MOL      0.034911
    136 H63         8.9100   -2.2320   -3.4880 ho        1 MOL      0.414657
    137 H64         8.8930   -5.0800   -1.4320 hc        1 MOL      0.094734
    138 H65         7.7310   -4.9910   -2.7720 hc        1 MOL      0.094734
    139 H66         9.5100   -4.6090   -2.9800 hc        1 MOL      0.094734
    140 N12         6.9580   -0.4330   -0.8760 n         1 MOL     -0.225236
    141 C43         6.9890    0.9810   -0.5480 c3        1 MOL     -0.133487
    142 C44         6.1030    1.3230    0.6610 c         1 MOL      0.396424
    143 O21         6.5390    2.2150    1.4190 o         1 MOL     -0.529025
    144 C45         6.6040    1.8350   -1.7170 c3        1 MOL     -0.099341
    145 C46         7.5270    1.7060   -3.0170 c3        1 MOL      0.141819
    146 C47         7.1940    2.6350   -4.2220 c3        1 MOL     -0.056882
    147 C48         6.9430    4.0900   -3.9280 c3        1 MOL      0.015146
    148 N13         8.0470    4.7330   -3.1910 n4        1 MOL     -0.361551
    149 H67         6.2950   -0.6730   -1.6030 hn        1 MOL      0.316251
    150 H68         7.9660    1.2910   -0.1880 h1        1 MOL      0.122051
    151 H69         6.6360    2.8690   -1.3660 hc        1 MOL      0.050658
    152 H70         5.5610    1.6340   -1.9750 hc        1 MOL      0.050658
    153 H71         7.5520    0.6570   -3.3130 hc        1 MOL     -0.031481
    154 H72         8.5580    1.9790   -2.7490 hc        1 MOL     -0.031481
    155 H73         6.1840    2.4330   -4.5750 hc        1 MOL      0.046792
    156 H74         7.9030    2.5360   -5.0510 hc        1 MOL      0.046792
    157 H75         5.9670    4.1240   -3.4550 hx        1 MOL      0.091032
    158 H76         6.8300    4.6670   -4.8510 hx        1 MOL      0.091032
    159 H77         8.9870    4.5500   -3.5140 hn        1 MOL      0.294152
    160 H78         8.0300    5.7330   -3.3590 hn        1 MOL      0.294152
    161 H79         8.0480    4.5140   -2.2070 hn        1 MOL      0.294152
    162 N14         4.9510    0.7360    0.8090 n         1 MOL     -0.061245
    163 C49         4.1000    1.0160    1.9640 c3        1 MOL     -0.124801
    164 C50         4.6320    0.3630    3.3030 c         1 MOL      0.365990
    165 O22         4.5480    0.9510    4.4440 o         1 MOL     -0.530911
    166 C51         2.6580    0.5690    1.6550 c3        1 MOL      0.205534
    167 C52         2.0160    1.5130    0.6600 c3        1 MOL     -0.452681
    168 C53         0.7980    0.7820    0.1100 c         1 MOL      1.010445
    169 O23        -0.2580    1.4270   -0.0560 o         1 MOL     -0.786903
    170 O24         0.9280   -0.2880   -0.5310 o         1 MOL     -0.786903
    171 H80         4.6540   -0.0190    0.2080 hn        1 MOL      0.046313
    172 H81         4.0700    2.0970    2.1200 h1        1 MOL      0.100829
    173 H82         2.0750    0.5360    2.5770 hc        1 MOL      0.011793
    174 H83         2.6730   -0.4430    1.2730 hc        1 MOL      0.011793
    175 H84         2.6390    1.7100   -0.2160 hc        1 MOL      0.098195
    176 H85         1.7150    2.3060    1.3440 hc        1 MOL      0.098195
    177 N15         5.2600   -0.8090    3.1920 n         1 MOL      0.021642
    178 C54         6.1780   -1.4530    4.1380 c3        1 MOL     -0.318467
    179 H86         7.1900   -1.0810    3.9710 h1        1 MOL      0.117918
    180 H87         5.8700   -1.2220    5.1580 h1        1 MOL      0.117918
    181 H88         6.1580   -2.5320    3.9870 h1        1 MOL      0.117918
    182 H89         5.1880   -1.3310    2.3360 hn        1 MOL      0.119233
    183 Ca1        -1.8330   -0.4610   -1.4910 Ca        1 MOL      1.725431
    184 O25        -1.1930   -2.9390   -2.4210 oh        1 MOL     -0.761086
    185 H90        -0.7400   -2.9170   -3.2620 ho        1 MOL      0.387254
    186 H91        -1.8240   -3.6540   -2.5040 ho        1 MOL      0.387254
    187 O26        -0.3810   -0.1570   -3.7500 oh        1 MOL     -0.761086
    188 H92        -0.1600    0.7790   -3.7630 ho        1 MOL      0.387254
    189 H93        -0.0590   -0.4880   -4.5830 ho        1 MOL      0.387254
@<TRIPOS>BOND
     1    1    2 1   
     2    1    4 1   
     3    1    5 1   
     4    1    6 1   
     5    2    3 2   
     6    2    7 1   
     7    7    8 1   
     8    7   15 1   
     9    8    9 1   
    10    8   11 1   
    11    8   16 1   
    12    9   10 2   
    13    9   19 1   
    14   11   12 1   
    15   11   17 1   
    16   11   18 1   
    17   12   13 1   
    18   12   14 1   
    19   19   20 1   
    20   19   28 1   
    21   20   21 1   
    22   20   23 1   
    23   20   29 1   
    24   21   22 2   
    25   21   41 1   
    26   23   24 1   
    27   23   30 1   
    28   23   31 1   
    29   24   25 1   
    30   24   32 1   
    31   24   33 1   
    32   25   26 1   
    33   25   34 1   
    34   25   35 1   
    35   26   27 1   
    36   26   36 1   
    37   26   37 1   
    38   27   38 1   
    39   27   39 1   
    40   27   40 1   
    41   41   42 1   
    42   41   49 1   
    43   42   43 1   
    44   42   45 1   
    45   42   50 1   
    46   43   44 2   
    47   43   53 1   
    48   45   46 1   
    49   45   51 1   
    50   45   52 1   
    51   46   47 1   
    52   46   48 1   
    53   53   54 1   
    54   53   57 1   
    55   54   55 1   
    56   54   58 1   
    57   54   59 1   
    58   55   56 2   
    59   55   60 1   
    60   60   61 1   
    61   60   68 1   
    62   61   62 1   
    63   61   64 1   
    64   61   69 1   
    65   62   63 2   
    66   62   72 1   
    67   64   65 1   
    68   64   70 1   
    69   64   71 1   
    70   65   66 1   
    71   65   67 1   
    72   72   73 1   
    73   72   76 1   
    74   73   74 1   
    75   73   77 1   
    76   73   78 1   
    77   74   75 2   
    78   74   79 1   
    79   79   80 1   
    80   79   86 1   
    81   80   81 1   
    82   80   83 1   
    83   80   87 1   
    84   81   82 2   
    85   81   93 1   
    86   83   84 1   
    87   83   85 1   
    88   83   88 1   
    89   84   90 1   
    90   84   91 1   
    91   84   92 1   
    92   85   89 1   
    93   93   94 1   
    94   93  101 1   
    95   94   95 1   
    96   94   97 1   
    97   94  102 1   
    98   95   96 2   
    99   95  112 1   
   100   97   98 1   
   101   97   99 1   
   102   97  103 1   
   103   98  100 1   
   104   98  104 1   
   105   98  105 1   
   106   99  106 1   
   107   99  107 1   
   108   99  108 1   
   109  100  109 1   
   110  100  110 1   
   111  100  111 1   
   112  112  113 1   
   113  112  119 1   
   114  113  114 1   
   115  113  116 1   
   116  113  120 1   
   117  114  115 2   
   118  114  126 1   
   119  116  117 1   
   120  116  118 1   
   121  116  121 1   
   122  117  123 1   
   123  117  124 1   
   124  117  125 1   
   125  118  122 1   
   126  126  127 1   
   127  126  133 1   
   128  127  128 1   
   129  127  130 1   
   130  127  134 1   
   131  128  129 2   
   132  128  140 1   
   133  130  131 1   
   134  130  132 1   
   135  130  135 1   
   136  131  137 1   
   137  131  138 1   
   138  131  139 1   
   139  132  136 1   
   140  140  141 1   
   141  140  149 1   
   142  141  142 1   
   143  141  144 1   
   144  141  150 1   
   145  142  143 2   
   146  142  162 1   
   147  144  145 1   
   148  144  151 1   
   149  144  152 1   
   150  145  146 1   
   151  145  153 1   
   152  145  154 1   
   153  146  147 1   
   154  146  155 1   
   155  146  156 1   
   156  147  148 1   
   157  147  157 1   
   158  147  158 1   
   159  148  159 1   
   160  148  160 1   
   161  148  161 1   
   162  162  163 1   
   163  162  171 1   
   164  163  164 1   
   165  163  166 1   
   166  163  172 1   
   167  164  165 2   
   168  164  177 1   
   169  166  167 1   
   170  166  173 1   
   171  166  174 1   
   172  167  168 1   
   173  167  175 1   
   174  167  176 1   
   175  168  169 1   
   176  168  170 1   
   177  177  178 1   
   178  177  182 1   
   179  178  179 1   
   180  178  180 1   
   181  178  181 1   
   182  184  185 1   
   183  184  186 1   
   184  187  188 1   
   185  187  189 1   
@<TRIPOS>SUBSTRUCTURE
     1 MOL         1 TEMP              0 ****  ****    0 ROOT
