@<TRIPOS>MOLECULE
MOL
  179   176     1     0     0
SMALL
resp


@<TRIPOS>ATOM
      1 C1          2.0160    3.2300    4.5880 c3        1 MOL     -0.405519
      2 C2          1.1360    3.0210    3.3600 c         1 MOL      0.631111
      3 O1          1.7260    2.7700    2.2860 o         1 MOL     -0.528648
      4 H1          2.5890    4.1510    4.4710 hc        1 MOL      0.117434
      5 H2          1.3900    3.3030    5.4770 hc        1 MOL      0.117434
      6 H3          2.7010    2.3880    4.6930 hc        1 MOL      0.117434
      7 N1         -0.2550    3.0330    3.4100 n         1 MOL     -0.723445
      8 C3         -1.1460    2.8080    2.2920 c3        1 MOL      0.229482
      9 C4         -1.9090    4.0320    1.8060 c         1 MOL      0.432804
     10 O2         -3.0860    4.2590    1.9240 o         1 MOL     -0.464004
     11 C5         -2.0470    1.6180    2.6150 c3        1 MOL      0.014578
     12 C6         -2.9910    1.0720    1.5170 c         1 MOL      0.523784
     13 O3         -3.9560    0.3420    1.7960 o         1 MOL     -0.644228
     14 O4         -2.7340    1.4640    0.3390 o         1 MOL     -0.644228
     15 H4         -0.7320    3.1490    4.3000 hn        1 MOL      0.367205
     16 H5         -0.6090    2.5740    1.3720 h1        1 MOL      0.003784
     17 H6         -2.5170    1.8520    3.5660 hc        1 MOL      0.005640
     18 H7         -1.4080    0.7600    2.8480 hc        1 MOL      0.005640
     19 N2         -1.1300    4.8920    1.1980 n         1 MOL     -0.356559
     20 C7         -1.5640    6.2270    0.6680 c3        1 MOL     -0.027659
     21 C8         -2.6030    6.1110   -0.4520 c         1 MOL      0.426377
     22 O5         -3.3400    7.0960   -0.5880 o         1 MOL     -0.551128
     23 C9         -0.4310    7.1870    0.3550 c3        1 MOL      0.131017
     24 C10         0.6360    7.0640    1.4530 c3        1 MOL     -0.206249
     25 C11         1.8660    7.8950    0.9040 c3        1 MOL     -0.216273
     26 C12         2.5910    7.5520   -0.4570 c3        1 MOL     -0.037767
     27 N3          3.2190    6.2400   -0.3620 n4        1 MOL     -0.307658
     28 H8         -0.1440    4.7210    1.3550 hn        1 MOL      0.279970
     29 H9         -2.0760    6.7090    1.4980 h1        1 MOL      0.093717
     30 H10        -0.8110    8.2020    0.2410 hc        1 MOL      0.015164
     31 H11        -0.1390    6.8250   -0.6290 hc        1 MOL      0.015164
     32 H12         0.9030    6.0120    1.5630 hc        1 MOL      0.088328
     33 H13         0.2460    7.5820    2.3270 hc        1 MOL      0.088328
     34 H14         2.5950    7.7770    1.7090 hc        1 MOL      0.117450
     35 H15         1.5720    8.9400    0.8350 hc        1 MOL      0.117450
     36 H16         3.2710    8.3930   -0.6040 hx        1 MOL      0.107889
     37 H17         1.9430    7.5730   -1.3320 hx        1 MOL      0.107889
     38 H18         2.4960    5.5350   -0.4280 hn        1 MOL      0.331820
     39 H19         3.8600    6.0680   -1.1180 hn        1 MOL      0.331820
     40 H20         3.7730    6.0430    0.4550 hn        1 MOL      0.331820
     41 N4         -2.6890    5.0320   -1.1810 n         1 MOL     -0.202606
     42 C13        -3.7070    4.7770   -2.1980 c3        1 MOL     -0.042358
     43 C14        -4.9680    4.1480   -1.5900 c         1 MOL      0.366233
     44 O6         -5.8670    3.8630   -2.3190 o         1 MOL     -0.500740
     45 C15        -3.0670    3.9750   -3.3640 c3        1 MOL     -0.225707
     46 C16        -2.2390    2.7400   -2.9640 c         1 MOL      0.688077
     47 O7         -1.1320    2.8610   -2.4500 o         1 MOL     -0.726360
     48 O8         -2.8230    1.6290   -2.9380 o         1 MOL     -0.726360
     49 H21        -2.0590    4.2510   -1.0570 hn        1 MOL      0.199794
     50 H22        -4.0330    5.7290   -2.6050 h1        1 MOL      0.117473
     51 H23        -2.4200    4.6810   -3.8810 hc        1 MOL      0.072733
     52 H24        -3.8100    3.6940   -4.1170 hc        1 MOL      0.072733
     53 N5         -4.9000    3.7020   -0.3620 n         1 MOL      0.169863
     54 C17        -5.9640    3.3260    0.5330 c3        1 MOL     -0.132077
     55 C18        -6.6640    2.0940   -0.0210 c         1 MOL      0.484032
     56 O9         -7.8720    2.1150   -0.3150 o         1 MOL     -0.547411
     57 H25        -3.9680    3.7520    0.0370 hn        1 MOL     -0.092614
     58 H26        -6.7180    4.1040    0.6340 h1        1 MOL      0.082292
     59 H27        -5.5510    3.0890    1.5090 h1        1 MOL      0.082292
     60 N6         -5.8720    1.0360   -0.3520 n         1 MOL     -0.280368
     61 C19        -6.3660   -0.1310   -1.1290 c3        1 MOL      0.091602
     62 C20        -6.4940   -1.4250   -0.2630 c         1 MOL      0.293285
     63 O10        -6.9680   -2.4690   -0.7520 o         1 MOL     -0.503662
     64 C21        -5.5690   -0.2880   -2.4600 c3        1 MOL     -0.171702
     65 C22        -4.4200   -1.2510   -2.2870 c         1 MOL      0.390952
     66 N7         -4.4550   -2.4120   -2.9270 n         1 MOL     -0.576079
     67 O11        -3.4650   -1.1510   -1.4840 o         1 MOL     -0.471652
     68 H28        -4.9430    0.9250    0.0330 hn        1 MOL      0.110315
     69 H29        -7.4030    0.0770   -1.3910 h1        1 MOL      0.109451
     70 H30        -5.3190    0.6690   -2.9260 hc        1 MOL      0.107727
     71 H31        -6.3110   -0.7470   -3.1180 hc        1 MOL      0.107727
     72 H32        -5.2440   -2.5270   -3.5470 hn        1 MOL      0.301708
     73 H33        -3.7120   -3.0940   -2.9500 hn        1 MOL      0.301708
     74 N8         -5.8580   -1.5090    0.9550 n         1 MOL     -0.183954
     75 C23        -5.9820   -2.6650    1.8970 c3        1 MOL     -0.295603
     76 C24        -4.6480   -3.3600    2.1030 c         1 MOL      0.629116
     77 O12        -4.5750   -4.2170    2.9750 o         1 MOL     -0.569215
     78 H34        -5.4480   -0.6690    1.3250 hn        1 MOL      0.262079
     79 H35        -6.7180   -3.4200    1.6070 h1        1 MOL      0.152712
     80 H36        -6.2430   -2.1710    2.8330 h1        1 MOL      0.152712
     81 N9         -3.6550   -3.0820    1.2080 n         1 MOL     -0.466075
     82 C25        -2.3540   -3.7910    1.1300 c3        1 MOL      0.026670
     83 C26        -1.1320   -2.8370    1.1380 c         1 MOL      0.703006
     84 O13        -1.0860   -1.7550    0.5290 o         1 MOL     -0.680390
     85 C27        -2.3570   -4.8310   -0.0290 c3        1 MOL      0.053890
     86 C28        -3.5380   -5.8230   -0.0940 ca        1 MOL     -0.114077
     87 C29        -4.4230   -5.8620   -1.2140 ca        1 MOL     -0.052940
     88 C30        -3.7540   -6.7320    0.9890 ca        1 MOL     -0.052940
     89 C31        -5.3820   -6.9470   -1.3140 ca        1 MOL     -0.338808
     90 C32        -4.7910   -7.6740    0.9160 ca        1 MOL     -0.338808
     91 C33        -5.6760   -7.7600   -0.2010 ca        1 MOL      0.435373
     92 O14        -6.7800   -8.5750   -0.1330 oh        1 MOL     -0.516424
     93 H37        -3.8170   -2.3630    0.5190 hn        1 MOL      0.380040
     94 H38        -2.3770   -4.3920    2.0410 h1        1 MOL      0.053431
     95 H39        -1.3900   -5.3350    0.0360 hc        1 MOL     -0.013121
     96 H40        -2.2880   -4.2130   -0.9230 hc        1 MOL     -0.013121
     97 H41        -4.3280   -5.1170   -1.9880 ha        1 MOL      0.128563
     98 H42        -3.1590   -6.6300    1.8830 ha        1 MOL      0.128563
     99 H43        -5.9330   -7.0740   -2.2420 ha        1 MOL      0.155677
    100 H44        -4.9980   -8.3670    1.7170 ha        1 MOL      0.155677
    101 H45        -6.8870   -8.9180    0.7640 ho        1 MOL      0.378226
    102 N10        -0.0840   -3.2530    1.8970 n         1 MOL     -0.664688
    103 C34         1.2390   -2.5370    1.7810 c3        1 MOL      0.339556
    104 C35         2.2220   -3.4240    0.9700 c         1 MOL      0.589609
    105 O15         2.1580   -4.6140    1.1580 o         1 MOL     -0.571073
    106 C36         1.7590   -2.1780    3.2120 c3        1 MOL     -0.009095
    107 C37         0.8920   -1.1440    3.9380 c3        1 MOL      0.221299
    108 C38         3.1960   -1.5940    3.1890 c3        1 MOL     -0.360568
    109 C39         1.0360   -1.0970    5.4790 c3        1 MOL     -0.347547
    110 H46        -0.1920   -4.0340    2.5290 hn        1 MOL      0.326581
    111 H47         1.1280   -1.6120    1.2120 h1        1 MOL     -0.040254
    112 H48         1.6110   -3.1040    3.7690 hc        1 MOL      0.029638
    113 H49        -0.1620   -1.3250    3.7470 hc        1 MOL     -0.005204
    114 H50         0.9970   -0.1380    3.5460 hc        1 MOL     -0.005204
    115 H51         3.1280   -0.6670    2.6130 hc        1 MOL      0.083586
    116 H52         3.5100   -1.3100    4.1990 hc        1 MOL      0.083586
    117 H53         4.0050   -2.2500    2.8700 hc        1 MOL      0.083586
    118 H54         2.0080   -0.6740    5.7470 hc        1 MOL      0.078333
    119 H55         0.2720   -0.3770    5.7960 hc        1 MOL      0.078333
    120 H56         0.8810   -2.0510    5.9870 hc        1 MOL      0.078333
    121 N11         3.1120   -2.8030    0.1390 n         1 MOL     -0.455178
    122 C40         4.3030   -3.5430   -0.4240 c3        1 MOL      0.121625
    123 C41         5.7320   -3.1730    0.0980 c         1 MOL      0.433462
    124 O16         5.8360   -2.2190    0.8560 o         1 MOL     -0.386497
    125 C42         4.2240   -3.5430   -1.9520 c3        1 MOL     -0.242547
    126 O17         4.4770   -2.1820   -2.4060 oh        1 MOL     -0.391541
    127 H57         2.9820   -1.8340   -0.1240 hn        1 MOL      0.352966
    128 H58         4.2200   -4.5950   -0.1650 h1        1 MOL      0.078635
    129 H59         3.2410   -3.9380   -2.2350 h1        1 MOL      0.123756
    130 H60         4.8520   -4.2800   -2.4620 h1        1 MOL      0.123756
    131 H61         4.0750   -2.1030   -3.2750 ho        1 MOL      0.381398
    132 N12         6.8550   -3.8790   -0.2450 n         1 MOL     -0.532868
    133 C43         8.1940   -3.3750   -0.0270 c3        1 MOL      0.278912
    134 C44         8.5070   -2.1060   -0.8220 c         1 MOL      0.349458
    135 O18         9.2440   -1.2060   -0.3860 o         1 MOL     -0.497544
    136 C45         9.1550   -4.4970   -0.4920 c3        1 MOL     -0.339201
    137 H62         6.7420   -4.6320   -0.9040 hn        1 MOL      0.291589
    138 H63         8.4300   -3.2400    1.0310 h1        1 MOL      0.069490
    139 H64         8.7550   -5.4230   -0.0810 hc        1 MOL      0.096545
    140 H65         9.1640   -4.4560   -1.5790 hc        1 MOL      0.096545
    141 H66        10.1030   -4.2660   -0.0200 hc        1 MOL      0.096545
    142 N13         7.8300   -1.9030   -1.9460 n         1 MOL     -0.231177
    143 C46         8.0300   -0.7160   -2.7610 c3        1 MOL      0.090257
    144 C47         7.3820    0.5420   -2.0480 c         1 MOL      0.304884
    145 O19         8.0740    1.5850   -1.8930 o         1 MOL     -0.501165
    146 C48         7.5320   -0.9300   -4.1800 c3        1 MOL     -0.251327
    147 H67         7.1800   -2.5680   -2.3420 hn        1 MOL      0.206854
    148 H68         9.1030   -0.5430   -2.8560 h1        1 MOL      0.100699
    149 H69         7.9540   -0.0970   -4.7220 hc        1 MOL      0.063718
    150 H70         7.9090   -1.8810   -4.5470 hc        1 MOL      0.063718
    151 H71         6.4460   -1.0370   -4.2530 hc        1 MOL      0.063718
    152 N14         6.2930    0.3600   -1.3440 n         1 MOL      0.111739
    153 C49         5.6610    1.2900   -0.4920 c3        1 MOL     -0.138290
    154 C50         6.3810    1.4500    0.8190 c         1 MOL      0.427089
    155 O20         6.5990    2.6000    1.3000 o         1 MOL     -0.588090
    156 C51         4.2520    0.8660   -0.1380 c3        1 MOL      0.190800
    157 C52         3.3100    0.9130   -1.3570 c3        1 MOL     -0.033641
    158 C53         1.8820    0.4450   -1.0820 c         1 MOL      0.823587
    159 O21         1.5170   -0.6440   -1.5270 o         1 MOL     -0.782446
    160 O22         1.0720    1.2830   -0.6130 o         1 MOL     -0.782446
    161 H72         5.6860   -0.4310   -1.5320 hn        1 MOL     -0.024211
    162 H73         5.6110    2.2290   -1.0450 h1        1 MOL      0.051666
    163 H74         3.8630    1.6000    0.5700 hc        1 MOL     -0.048378
    164 H75         4.1610   -0.1180    0.3130 hc        1 MOL     -0.048378
    165 H76         3.6620    0.2580   -2.1560 hc        1 MOL     -0.041711
    166 H77         3.2530    1.9380   -1.7290 hc        1 MOL     -0.041711
    167 N15         6.8610    0.3810    1.4530 n         1 MOL     -0.012361
    168 C54         7.7410    0.5240    2.5880 c3        1 MOL     -0.239322
    169 H78         8.2030    1.5110    2.5660 h1        1 MOL      0.098744
    170 H79         7.1680    0.4120    3.5080 h1        1 MOL      0.098744
    171 H80         8.5160   -0.2410    2.5460 h1        1 MOL      0.098744
    172 H81         6.6230   -0.4710    0.9760 hn        1 MOL      0.047359
    173 Ca1        -1.1950    0.2040   -1.4450 Ca        1 MOL      1.755432
    174 O23        -0.6900    0.1780   -4.1030 oh        1 MOL     -0.790155
    175 H82         0.0360    0.1940   -4.7250 ho        1 MOL      0.390343
    176 H83        -1.4780    0.1400   -4.6530 ho        1 MOL      0.390343
    177 O24        -0.9160   -2.5050   -2.3690 oh        1 MOL     -0.790155
    178 H84        -0.4260   -3.2490   -2.0330 ho        1 MOL      0.390343
    179 H85        -1.5150   -2.8800   -3.0140 ho        1 MOL      0.390343
@<TRIPOS>BOND
     1    1    2 1   
     2    1    4 1   
     3    1    5 1   
     4    1    6 1   
     5    2    3 2   
     6    2    7 1   
     7    7    8 1   
     8    7   15 1   
     9    8    9 1   
    10    8   11 1   
    11    8   16 1   
    12    9   10 2   
    13    9   19 1   
    14   11   12 1   
    15   11   17 1   
    16   11   18 1   
    17   12   13 1   
    18   12   14 1   
    19   19   20 1   
    20   19   28 1   
    21   20   21 1   
    22   20   23 1   
    23   20   29 1   
    24   21   22 2   
    25   21   41 1   
    26   23   24 1   
    27   23   30 1   
    28   23   31 1   
    29   24   25 1   
    30   24   32 1   
    31   24   33 1   
    32   25   26 1   
    33   25   34 1   
    34   25   35 1   
    35   26   27 1   
    36   26   36 1   
    37   26   37 1   
    38   27   38 1   
    39   27   39 1   
    40   27   40 1   
    41   41   42 1   
    42   41   49 1   
    43   42   43 1   
    44   42   45 1   
    45   42   50 1   
    46   43   44 2   
    47   43   53 1   
    48   45   46 1   
    49   45   51 1   
    50   45   52 1   
    51   46   47 1   
    52   46   48 1   
    53   53   54 1   
    54   53   57 1   
    55   54   55 1   
    56   54   58 1   
    57   54   59 1   
    58   55   56 2   
    59   55   60 1   
    60   60   61 1   
    61   60   68 1   
    62   61   62 1   
    63   61   64 1   
    64   61   69 1   
    65   62   63 2   
    66   62   74 1   
    67   64   65 1   
    68   64   70 1   
    69   64   71 1   
    70   65   66 1   
    71   65   67 2   
    72   66   72 1   
    73   66   73 1   
    74   74   75 1   
    75   74   78 1   
    76   75   76 1   
    77   75   79 1   
    78   75   80 1   
    79   76   77 2   
    80   76   81 1   
    81   81   82 1   
    82   81   93 1   
    83   82   83 1   
    84   82   85 1   
    85   82   94 1   
    86   83   84 2   
    87   83  102 1   
    88   85   86 1   
    89   85   95 1   
    90   85   96 1   
    91   86   87 ar  
    92   86   88 ar  
    93   87   89 ar  
    94   87   97 1   
    95   88   90 ar  
    96   88   98 1   
    97   89   91 ar  
    98   89   99 1   
    99   90   91 ar  
   100   90  100 1   
   101   91   92 1   
   102   92  101 1   
   103  102  103 1   
   104  102  110 1   
   105  103  104 1   
   106  103  106 1   
   107  103  111 1   
   108  104  105 2   
   109  104  121 1   
   110  106  107 1   
   111  106  108 1   
   112  106  112 1   
   113  107  109 1   
   114  107  113 1   
   115  107  114 1   
   116  108  115 1   
   117  108  116 1   
   118  108  117 1   
   119  109  118 1   
   120  109  119 1   
   121  109  120 1   
   122  121  122 1   
   123  121  127 1   
   124  122  123 1   
   125  122  125 1   
   126  122  128 1   
   127  123  124 2   
   128  123  132 1   
   129  125  126 1   
   130  125  129 1   
   131  125  130 1   
   132  126  131 1   
   133  132  133 1   
   134  132  137 1   
   135  133  134 1   
   136  133  136 1   
   137  133  138 1   
   138  134  135 2   
   139  134  142 1   
   140  136  139 1   
   141  136  140 1   
   142  136  141 1   
   143  142  143 1   
   144  142  147 1   
   145  143  144 1   
   146  143  146 1   
   147  143  148 1   
   148  144  145 2   
   149  144  152 1   
   150  146  149 1   
   151  146  150 1   
   152  146  151 1   
   153  152  153 1   
   154  152  161 1   
   155  153  154 1   
   156  153  156 1   
   157  153  162 1   
   158  154  155 2   
   159  154  167 1   
   160  156  157 1   
   161  156  163 1   
   162  156  164 1   
   163  157  158 1   
   164  157  165 1   
   165  157  166 1   
   166  158  159 1   
   167  158  160 1   
   168  167  168 1   
   169  167  172 1   
   170  168  169 1   
   171  168  170 1   
   172  168  171 1   
   173  174  175 1   
   174  174  176 1   
   175  177  178 1   
   176  177  179 1   
@<TRIPOS>SUBSTRUCTURE
     1 MOL         1 TEMP              0 ****  ****    0 ROOT
