@<TRIPOS>MOLECULE
MOL
  186   183     1     0     0
SMALL
resp


@<TRIPOS>ATOM
      1 C1         -0.9920    1.8010    6.4410 c3        1 MOL     -0.410973
      2 C2         -1.1700    1.8100    4.9550 c         1 MOL      0.836959
      3 O1         -0.2680    2.0340    4.2110 o         1 MOL     -0.612841
      4 H1         -0.5050    2.7240    6.7530 hc        1 MOL      0.093863
      5 H2         -1.9660    1.7240    6.9240 hc        1 MOL      0.093863
      6 H3         -0.3740    0.9500    6.7270 hc        1 MOL      0.093863
      7 N1         -2.4330    1.7760    4.4610 n         1 MOL     -0.759657
      8 C3         -2.8510    1.9120    3.0520 c3        1 MOL      0.427283
      9 C4         -3.2100    3.3780    2.6170 c         1 MOL      0.407036
     10 O2         -3.7860    4.1230    3.3950 o         1 MOL     -0.558682
     11 C5         -4.0510    0.9610    2.7430 c3        1 MOL     -0.129176
     12 C6         -4.7010    1.2350    1.3900 c         1 MOL      0.579740
     13 O3         -5.7490    1.8690    1.4260 o         1 MOL     -0.615575
     14 O4         -4.0130    0.9290    0.4230 o         1 MOL     -0.615575
     15 H4         -3.1210    1.5880    5.1640 hn        1 MOL      0.312392
     16 H5         -2.0380    1.4930    2.4620 h1        1 MOL     -0.004942
     17 H6         -4.8480    1.0750    3.4880 hc        1 MOL     -0.018654
     18 H7         -3.6910   -0.0640    2.6770 hc        1 MOL     -0.018654
     19 N2         -2.9740    3.6470    1.3300 n         1 MOL     -0.030993
     20 C7         -3.1740    4.9490    0.7670 c3        1 MOL     -0.166816
     21 C8         -3.9480    5.0800   -0.6100 c         1 MOL      0.591580
     22 O5         -4.4070    6.1680   -0.9500 o         1 MOL     -0.577866
     23 C9         -1.8580    5.7370    0.7930 c3        1 MOL      0.136434
     24 C10        -0.9330    5.3110   -0.3450 c3        1 MOL      0.198225
     25 C11        -1.1380    5.6040    2.1650 c3        1 MOL     -0.288535
     26 C12         0.2150    6.2940   -0.5910 c3        1 MOL     -0.334601
     27 H8         -2.4490    2.9820    0.7710 hn        1 MOL     -0.060207
     28 H9         -3.8000    5.5520    1.4290 h1        1 MOL      0.090647
     29 H10        -2.1180    6.7820    0.6050 hc        1 MOL     -0.034236
     30 H11        -1.4080    5.2630   -1.3210 hc        1 MOL     -0.008234
     31 H12        -0.4680    4.3530   -0.1150 hc        1 MOL     -0.008234
     32 H13        -1.6120    6.0260    3.0520 hc        1 MOL      0.076310
     33 H14        -0.7720    4.6010    2.3960 hc        1 MOL      0.076310
     34 H15        -0.1690    6.0900    2.0880 hc        1 MOL      0.076310
     35 H16         0.5100    6.1120   -1.6300 hc        1 MOL      0.061146
     36 H17        -0.1730    7.3080   -0.5450 hc        1 MOL      0.061146
     37 H18         0.9850    6.1990    0.1770 hc        1 MOL      0.061146
     38 N3         -4.2920    3.8990   -1.1640 n         1 MOL     -0.490827
     39 C13        -4.9210    3.7770   -2.4320 c3        1 MOL      0.044540
     40 C14        -6.2840    2.9930   -2.4610 c         1 MOL      0.437254
     41 O6         -6.9260    2.7970   -3.4340 o         1 MOL     -0.539646
     42 C15        -3.9130    3.5600   -3.6000 c3        1 MOL     -0.148727
     43 C16        -2.9340    2.4520   -3.3510 c         1 MOL      0.758314
     44 O7         -3.3110    1.4550   -2.6860 o         1 MOL     -0.708689
     45 O8         -1.8670    2.4350   -4.0110 o         1 MOL     -0.708689
     46 H19        -3.9600    3.0490   -0.7270 hn        1 MOL      0.363980
     47 H20        -5.2310    4.7860   -2.6950 h1        1 MOL      0.074199
     48 H21        -3.4000    4.4980   -3.7860 hc        1 MOL      0.039727
     49 H22        -4.4960    3.3770   -4.5020 hc        1 MOL      0.039727
     50 N4         -6.7090    2.5320   -1.2760 n         1 MOL     -0.163512
     51 C17        -8.0420    1.9640   -0.9490 c3        1 MOL     -0.207800
     52 C18        -8.1910    0.4800   -1.1720 c         1 MOL      0.537959
     53 O9         -9.2680    0.0340   -1.4730 o         1 MOL     -0.614928
     54 H23        -6.0010    2.4950   -0.5590 hn        1 MOL      0.098604
     55 H24        -8.8240    2.5580   -1.4190 h1        1 MOL      0.110164
     56 H25        -8.1650    2.1680    0.1200 h1        1 MOL      0.110164
     57 N5         -7.1200   -0.3240   -1.2720 n         1 MOL     -0.137065
     58 C19        -7.2160   -1.7540   -1.6080 c3        1 MOL     -0.066112
     59 C20        -7.0940   -2.8430   -0.4720 c         1 MOL      0.302146
     60 O10        -7.0970   -4.0710   -0.7860 o         1 MOL     -0.503078
     61 C21        -6.1450   -2.1010   -2.6580 c3        1 MOL     -0.024971
     62 C22        -4.7350   -1.8310   -2.2170 c         1 MOL      0.750728
     63 O11        -3.8190   -1.8120   -3.0910 o         1 MOL     -0.734153
     64 O12        -4.4660   -1.6080   -0.9990 o         1 MOL     -0.734153
     65 H26        -6.2500    0.1940   -1.2270 hn        1 MOL      0.148121
     66 H27        -8.1510   -1.9690   -2.1360 h1        1 MOL      0.124274
     67 H28        -6.4460   -1.5640   -3.5590 hc        1 MOL      0.023029
     68 H29        -6.2680   -3.1310   -2.9870 hc        1 MOL      0.023029
     69 N6         -6.9840   -2.4170    0.8220 n         1 MOL     -0.180483
     70 C23        -6.8350   -3.3450    1.9450 c3        1 MOL     -0.066518
     71 C24        -5.5090   -3.9980    2.1070 c         1 MOL      0.475497
     72 O13        -5.4250   -4.9120    2.9050 o         1 MOL     -0.601834
     73 H30        -7.1770   -1.4420    1.0120 hn        1 MOL      0.204334
     74 H31        -7.6530   -4.0690    1.9520 h1        1 MOL      0.070645
     75 H32        -7.1150   -2.7440    2.8120 h1        1 MOL      0.070645
     76 N7         -4.4720   -3.4920    1.5660 n         1 MOL     -0.251687
     77 C25        -3.1180   -4.0770    1.3850 c3        1 MOL     -0.019646
     78 C26        -2.0160   -2.9710    1.4810 c         1 MOL      0.434578
     79 O14        -2.1450   -1.8840    0.9800 o         1 MOL     -0.520366
     80 C27        -2.9510   -4.6100   -0.0650 c3        1 MOL     -0.000364
     81 C28        -3.8040   -5.8310   -0.4960 c3        1 MOL     -0.156623
     82 C29        -3.6540   -6.1480   -2.0050 c         1 MOL      0.665882
     83 N8         -4.5550   -6.9300   -2.5200 n         1 MOL     -0.801033
     84 O15        -2.7270   -5.7180   -2.6830 o         1 MOL     -0.560080
     85 H33        -4.7290   -2.6900    0.9940 hn        1 MOL      0.213057
     86 H34        -2.8970   -4.8330    2.1360 h1        1 MOL      0.074980
     87 H35        -1.9120   -4.8620   -0.2490 hc        1 MOL      0.048223
     88 H36        -3.1780   -3.8970   -0.8530 hc        1 MOL      0.048223
     89 H37        -4.8760   -5.7250   -0.3370 hc        1 MOL      0.037383
     90 H38        -3.5140   -6.7210    0.0710 hc        1 MOL      0.037383
     91 H39        -5.3610   -7.1840   -1.9710 hn        1 MOL      0.358955
     92 H40        -4.5590   -7.1820   -3.4920 hn        1 MOL      0.358955
     93 N9         -0.8980   -3.3310    2.1050 n         1 MOL     -0.273515
     94 C30         0.3580   -2.5570    2.1470 c3        1 MOL      0.120975
     95 C31         1.4140   -3.2480    1.2530 c         1 MOL      0.264457
     96 O16         1.7610   -4.3970    1.5270 o         1 MOL     -0.554384
     97 C32         0.8150   -2.5680    3.5910 c3        1 MOL      0.334404
     98 C33         2.1780   -1.8480    3.7300 c3        1 MOL     -0.253611
     99 C34        -0.2040   -2.0220    4.6040 c3        1 MOL     -0.253611
    100 H41        -0.9500   -4.2510    2.5330 hn        1 MOL      0.209070
    101 H42         0.1830   -1.5100    1.8760 h1        1 MOL      0.088518
    102 H43         0.9330   -3.6160    3.8710 hc        1 MOL     -0.063062
    103 H44         2.9400   -2.5050    3.3000 hc        1 MOL      0.039095
    104 H45         2.1480   -0.8660    3.2600 hc        1 MOL      0.039095
    105 H46         2.3600   -1.8380    4.8030 hc        1 MOL      0.039095
    106 H47        -1.1900   -2.4160    4.3720 hc        1 MOL      0.039095
    107 H48         0.0900   -2.2730    5.6210 hc        1 MOL      0.039095
    108 H49        -0.2480   -0.9440    4.4480 hc        1 MOL      0.039095
    109 N10         1.9130   -2.5310    0.2810 n         1 MOL     -0.066954
    110 C35         2.9700   -2.9770   -0.6250 c3        1 MOL      0.204374
    111 C36         4.3290   -2.3850   -0.2530 c         1 MOL      0.300096
    112 O17         4.3550   -1.5980    0.7260 o         1 MOL     -0.326666
    113 C37         2.5020   -2.6110   -2.0720 c3        1 MOL     -0.427065
    114 C38         2.9400   -1.1930   -2.5670 c         1 MOL      0.589851
    115 N11         2.4640   -0.1820   -1.9030 n         1 MOL     -0.530286
    116 O18         3.8130   -1.0280   -3.4460 o         1 MOL     -0.596844
    117 H50         1.5080   -1.6180    0.1230 hn        1 MOL      0.047484
    118 H51         3.1460   -4.0500   -0.5200 h1        1 MOL      0.047533
    119 H52         1.4150   -2.5920   -2.0600 hc        1 MOL      0.135480
    120 H53         2.8310   -3.4550   -2.6840 hc        1 MOL      0.135480
    121 H54         1.6240   -0.2590   -1.3430 hn        1 MOL      0.313954
    122 H55         2.8780    0.6940   -2.2100 hn        1 MOL      0.313954
    123 N12         5.4410   -2.6380   -0.9640 n         1 MOL     -0.408123
    124 C39         6.7830   -2.1240   -0.4700 c3        1 MOL      0.109576
    125 C40         6.7180   -0.6050   -0.2000 c         1 MOL      0.711005
    126 O19         7.1500   -0.0800    0.8360 o         1 MOL     -0.581905
    127 C41         7.8630   -2.5140   -1.4880 c3        1 MOL     -0.069165
    128 C42         9.3240   -2.2250   -1.0440 ca        1 MOL     -0.024092
    129 C43         9.9040   -2.8110    0.1350 ca        1 MOL     -0.153242
    130 C44        10.0600   -1.3220   -1.8390 ca        1 MOL     -0.153242
    131 C45        11.2060   -2.4230    0.4560 ca        1 MOL     -0.253499
    132 C46        11.4120   -1.0470   -1.5700 ca        1 MOL     -0.253499
    133 C47        11.9490   -1.6160   -0.4000 ca        1 MOL      0.378339
    134 O20        13.2240   -1.2490   -0.0560 oh        1 MOL     -0.598074
    135 H56         5.3640   -3.1690   -1.8150 hn        1 MOL      0.274326
    136 H57         7.0760   -2.6920    0.4160 h1        1 MOL      0.022416
    137 H58         7.7080   -2.0280   -2.4440 hc        1 MOL      0.036453
    138 H59         7.7920   -3.5860   -1.6530 hc        1 MOL      0.036453
    139 H60         9.3240   -3.4410    0.7840 ha        1 MOL      0.148007
    140 H61         9.5810   -0.8730   -2.6970 ha        1 MOL      0.148007
    141 H62        11.5870   -2.7230    1.4200 ha        1 MOL      0.147592
    142 H63        11.9650   -0.3170   -2.1480 ha        1 MOL      0.147592
    143 H64        13.5140   -0.4840   -0.5530 ho        1 MOL      0.414724
    144 N13         6.1220    0.0920   -1.1310 n         1 MOL     -0.440250
    145 C48         6.1850    1.5840   -1.1660 c3        1 MOL     -0.188773
    146 C49         5.4110    2.1730   -0.0280 c         1 MOL      0.367165
    147 O21         5.6910    3.2800    0.4200 o         1 MOL     -0.497316
    148 C50         5.7560    2.1650   -2.5220 c3        1 MOL      0.220736
    149 C51         6.2360    3.6400   -2.6400 c3        1 MOL     -0.384204
    150 C52         7.8080    3.5800   -2.6770 c         1 MOL      0.706315
    151 O22         8.3390    2.5850   -3.1930 o         1 MOL     -0.713801
    152 O23         8.5420    4.3980   -2.1330 o         1 MOL     -0.713801
    153 H65         5.6150   -0.3570   -1.8670 hn        1 MOL      0.265692
    154 H66         7.2100    1.9340   -0.9900 h1        1 MOL      0.239247
    155 H67         4.6840    1.9840   -2.5890 hc        1 MOL     -0.030403
    156 H68         6.1920    1.6010   -3.3560 hc        1 MOL     -0.030403
    157 H69         5.7650    4.2710   -1.8870 hc        1 MOL      0.069047
    158 H70         5.8520    3.9440   -3.6120 hc        1 MOL      0.069047
    159 N14         4.2580    1.6320    0.4020 n         1 MOL     -0.045195
    160 C53         3.5880    1.9720    1.6180 c3        1 MOL     -0.085775
    161 C54         4.3490    1.4840    2.9060 c         1 MOL      0.457620
    162 O24         4.2680    2.1710    3.9290 o         1 MOL     -0.582309
    163 C55         2.2120    1.3700    1.5310 c3        1 MOL      0.045427
    164 C56         1.2800    2.0640    0.5130 c3        1 MOL     -0.165061
    165 C57         0.0750    1.1980    0.1580 c         1 MOL      0.622196
    166 O25        -1.1080    1.6740    0.0170 o         1 MOL     -0.640096
    167 O26         0.2760    0.0130   -0.2500 o         1 MOL     -0.640096
    168 H71         4.0380    0.7250    0.0130 hn        1 MOL     -0.032010
    169 H72         3.4890    3.0470    1.7680 h1        1 MOL      0.091025
    170 H73         1.7670    1.4560    2.5120 hc        1 MOL      0.052697
    171 H74         2.2560    0.3110    1.2900 hc        1 MOL      0.052697
    172 H75         1.8590    2.2420   -0.3860 hc        1 MOL      0.066454
    173 H76         1.0130    2.9940    1.0280 hc        1 MOL      0.066454
    174 N15         5.0580    0.3730    2.8800 n         1 MOL      0.044231
    175 C58         5.7400   -0.2190    4.0020 c3        1 MOL     -0.194912
    176 H77         6.4290    0.5080    4.4310 h1        1 MOL      0.068030
    177 H78         5.0110   -0.5160    4.7560 h1        1 MOL      0.068030
    178 H79         6.2970   -1.0950    3.6690 h1        1 MOL      0.068030
    179 H80         4.9690   -0.1940    2.0490 hn        1 MOL     -0.006021
    180 Ca1        -2.2980   -0.3090   -1.0620 Ca        1 MOL      1.629749
    181 O27        -1.2650   -2.6560   -2.0260 oh        1 MOL     -0.845692
    182 H81        -2.1830   -2.7040   -2.3230 ho        1 MOL      0.393638
    183 H82        -0.8160   -3.3080   -2.5580 ho        1 MOL      0.393638
    184 O28        -0.6820    0.3160   -2.9360 oh        1 MOL     -0.845692
    185 H83        -0.1640    0.0260   -3.6860 ho        1 MOL      0.393638
    186 H84        -1.0710    1.1370   -3.2190 ho        1 MOL      0.393638
@<TRIPOS>BOND
     1    1    2 1   
     2    1    4 1   
     3    1    5 1   
     4    1    6 1   
     5    2    3 2   
     6    2    7 1   
     7    7    8 1   
     8    7   15 1   
     9    8    9 1   
    10    8   11 1   
    11    8   16 1   
    12    9   10 2   
    13    9   19 1   
    14   11   12 1   
    15   11   17 1   
    16   11   18 1   
    17   12   13 1   
    18   12   14 1   
    19   19   20 1   
    20   19   27 1   
    21   20   21 1   
    22   20   23 1   
    23   20   28 1   
    24   21   22 2   
    25   21   38 1   
    26   23   24 1   
    27   23   25 1   
    28   23   29 1   
    29   24   26 1   
    30   24   30 1   
    31   24   31 1   
    32   25   32 1   
    33   25   33 1   
    34   25   34 1   
    35   26   35 1   
    36   26   36 1   
    37   26   37 1   
    38   38   39 1   
    39   38   46 1   
    40   39   40 1   
    41   39   42 1   
    42   39   47 1   
    43   40   41 2   
    44   40   50 1   
    45   42   43 1   
    46   42   48 1   
    47   42   49 1   
    48   43   44 1   
    49   43   45 1   
    50   50   51 1   
    51   50   54 1   
    52   51   52 1   
    53   51   55 1   
    54   51   56 1   
    55   52   53 2   
    56   52   57 1   
    57   57   58 1   
    58   57   65 1   
    59   58   59 1   
    60   58   61 1   
    61   58   66 1   
    62   59   60 2   
    63   59   69 1   
    64   61   62 1   
    65   61   67 1   
    66   61   68 1   
    67   62   63 1   
    68   62   64 1   
    69   69   70 1   
    70   69   73 1   
    71   70   71 1   
    72   70   74 1   
    73   70   75 1   
    74   71   72 2   
    75   71   76 1   
    76   76   77 1   
    77   76   85 1   
    78   77   78 1   
    79   77   80 1   
    80   77   86 1   
    81   78   79 2   
    82   78   93 1   
    83   80   81 1   
    84   80   87 1   
    85   80   88 1   
    86   81   82 1   
    87   81   89 1   
    88   81   90 1   
    89   82   83 1   
    90   82   84 2   
    91   83   91 1   
    92   83   92 1   
    93   93   94 1   
    94   93  100 1   
    95   94   95 1   
    96   94   97 1   
    97   94  101 1   
    98   95   96 2   
    99   95  109 1   
   100   97   98 1   
   101   97   99 1   
   102   97  102 1   
   103   98  103 1   
   104   98  104 1   
   105   98  105 1   
   106   99  106 1   
   107   99  107 1   
   108   99  108 1   
   109  109  110 1   
   110  109  117 1   
   111  110  111 1   
   112  110  113 1   
   113  110  118 1   
   114  111  112 2   
   115  111  123 1   
   116  113  114 1   
   117  113  119 1   
   118  113  120 1   
   119  114  115 1   
   120  114  116 2   
   121  115  121 1   
   122  115  122 1   
   123  123  124 1   
   124  123  135 1   
   125  124  125 1   
   126  124  127 1   
   127  124  136 1   
   128  125  126 2   
   129  125  144 1   
   130  127  128 1   
   131  127  137 1   
   132  127  138 1   
   133  128  129 ar  
   134  128  130 ar  
   135  129  131 ar  
   136  129  139 1   
   137  130  132 ar  
   138  130  140 1   
   139  131  133 ar  
   140  131  141 1   
   141  132  133 ar  
   142  132  142 1   
   143  133  134 1   
   144  134  143 1   
   145  144  145 1   
   146  144  153 1   
   147  145  146 1   
   148  145  148 1   
   149  145  154 1   
   150  146  147 2   
   151  146  159 1   
   152  148  149 1   
   153  148  155 1   
   154  148  156 1   
   155  149  150 1   
   156  149  157 1   
   157  149  158 1   
   158  150  151 1   
   159  150  152 1   
   160  159  160 1   
   161  159  168 1   
   162  160  161 1   
   163  160  163 1   
   164  160  169 1   
   165  161  162 2   
   166  161  174 1   
   167  163  164 1   
   168  163  170 1   
   169  163  171 1   
   170  164  165 1   
   171  164  172 1   
   172  164  173 1   
   173  165  166 1   
   174  165  167 1   
   175  174  175 1   
   176  174  179 1   
   177  175  176 1   
   178  175  177 1   
   179  175  178 1   
   180  181  182 1   
   181  181  183 1   
   182  184  185 1   
   183  184  186 1   
@<TRIPOS>SUBSTRUCTURE
     1 MOL         1 TEMP              0 ****  ****    0 ROOT
