@<TRIPOS>MOLECULE
MOL
  179   176     1     0     0
SMALL
resp


@<TRIPOS>ATOM
      1 C1         -1.5110    4.2900   -3.6050 c3        1 MOL     -0.319841
      2 C2         -0.6000    3.6610   -2.5050 c         1 MOL      0.491734
      3 O1         -1.0710    3.2280   -1.4480 o         1 MOL     -0.506677
      4 H1         -1.7590    3.5320   -4.3480 hc        1 MOL      0.094665
      5 H2         -2.4280    4.6640   -3.1490 hc        1 MOL      0.094665
      6 H3         -0.9840    5.1120   -4.0880 hc        1 MOL      0.094665
      7 N1          0.6730    3.3750   -2.8390 n         1 MOL     -0.608785
      8 C3          1.6210    2.6830   -1.9260 c3        1 MOL      0.040306
      9 C4          2.6710    3.6160   -1.4670 c         1 MOL      0.608944
     10 O2          3.8630    3.4560   -1.8020 o         1 MOL     -0.519434
     11 C5          2.0620    1.4000   -2.6130 c3        1 MOL     -0.217114
     12 C6          2.7180    0.4380   -1.5980 c         1 MOL      0.548649
     13 O3          3.7830   -0.1700   -1.9790 o         1 MOL     -0.663018
     14 O4          2.2570    0.2950   -0.4400 o         1 MOL     -0.663018
     15 H4          1.0060    3.6150   -3.7540 hn        1 MOL      0.339675
     16 H5          1.0430    2.3700   -1.0550 h1        1 MOL      0.094156
     17 H6          2.7230    1.5220   -3.4790 hc        1 MOL      0.101918
     18 H7          1.1760    0.9730   -3.0820 hc        1 MOL      0.101918
     19 N2          2.2950    4.7110   -0.8150 n         1 MOL     -0.435373
     20 C7          3.1470    5.7900   -0.4750 c3        1 MOL     -0.027426
     21 C8          4.2250    5.2950    0.4670 c         1 MOL      0.476863
     22 O5          5.3250    5.6930    0.2480 o         1 MOL     -0.515353
     23 C9          2.2670    6.8970    0.1060 c3        1 MOL      0.009605
     24 C10         1.5430    7.6600   -0.9220 c3        1 MOL      0.031757
     25 C11         0.9150    8.9650   -0.4190 c3        1 MOL     -0.255753
     26 C12        -0.1160    9.5770   -1.3360 c3        1 MOL      0.023766
     27 N3         -1.3580    8.8760   -1.3430 n4        1 MOL     -0.402277
     28 H8          1.3240    4.7810   -0.5390 hn        1 MOL      0.322642
     29 H9          3.6050    6.1760   -1.3870 h1        1 MOL      0.104535
     30 H10         2.8600    7.6320    0.6500 hc        1 MOL      0.007320
     31 H11         1.5850    6.4460    0.8280 hc        1 MOL      0.007320
     32 H12         0.9570    6.9770   -1.5440 hc        1 MOL      0.012698
     33 H13         2.3070    7.8920   -1.6690 hc        1 MOL      0.012698
     34 H14         1.7400    9.6710   -0.3750 hc        1 MOL      0.130677
     35 H15         0.5990    8.9670    0.6210 hc        1 MOL      0.130677
     36 H16         0.2970    9.5100   -2.3390 hx        1 MOL      0.098343
     37 H17        -0.1870   10.6410   -1.1040 hx        1 MOL      0.098343
     38 H18        -1.5010    8.5570   -0.3940 hn        1 MOL      0.347716
     39 H19        -2.0610    9.5250   -1.6810 hn        1 MOL      0.347716
     40 H20        -1.4150    8.0980   -1.9790 hn        1 MOL      0.347716
     41 N4          3.9440    4.5490    1.4930 n         1 MOL     -0.419646
     42 C13         4.9290    3.8600    2.3320 c3        1 MOL      0.093345
     43 C14         5.9610    3.1070    1.4710 c         1 MOL      0.370989
     44 O6          7.1580    3.1360    1.7530 o         1 MOL     -0.528740
     45 C15         4.3160    2.7700    3.2610 c3        1 MOL     -0.361167
     46 C16         3.2940    1.8300    2.6140 c         1 MOL      0.703319
     47 O7          3.2560    0.6500    2.9810 o         1 MOL     -0.714410
     48 O8          2.4580    2.3030    1.8230 o         1 MOL     -0.714410
     49 H21         3.0320    4.1060    1.4890 hn        1 MOL      0.287893
     50 H22         5.5490    4.6090    2.8310 h1        1 MOL      0.078271
     51 H23         3.8830    3.2660    4.1400 hc        1 MOL      0.109782
     52 H24         5.1560    2.1920    3.6520 hc        1 MOL      0.109782
     53 N5          5.4870    2.4670    0.3810 n         1 MOL      0.084328
     54 C17         6.3410    1.7080   -0.5280 c3        1 MOL     -0.184414
     55 C18         6.7650    0.2950   -0.0520 c         1 MOL      0.533879
     56 O9          7.7860   -0.1930   -0.5280 o         1 MOL     -0.556036
     57 H25         4.5370    2.6610    0.0970 hn        1 MOL      0.060999
     58 H26         7.2650    2.2340   -0.7350 h1        1 MOL      0.100949
     59 H27         5.7420    1.5990   -1.4320 h1        1 MOL      0.100949
     60 N6          6.0820   -0.3040    0.9060 n         1 MOL     -0.361636
     61 C19         6.2830   -1.6970    1.3450 c3        1 MOL      0.147791
     62 C20         5.9610   -2.6540    0.1530 c         1 MOL      0.236902
     63 O10         6.5750   -3.7310    0.1610 o         1 MOL     -0.518717
     64 C21         5.5410   -1.9400    2.6210 c3        1 MOL     -0.252123
     65 C22         4.1340   -2.5440    2.3650 c         1 MOL      0.669187
     66 N7          3.9660   -3.7880    2.8250 n         1 MOL     -0.818661
     67 O11         3.2740   -1.9120    1.7610 o         1 MOL     -0.655997
     68 H28         5.3300    0.2380    1.3060 hn        1 MOL      0.182907
     69 H29         7.3580   -1.8010    1.5110 h1        1 MOL      0.081360
     70 H30         5.5260   -1.1020    3.3130 hc        1 MOL      0.087335
     71 H31         6.1130   -2.7390    3.1060 hc        1 MOL      0.087335
     72 H32         4.7970   -4.2430    3.1780 hn        1 MOL      0.382181
     73 H33         3.1210   -4.3420    2.7840 hn        1 MOL      0.382181
     74 N8          5.1470   -2.2480   -0.7990 n         1 MOL      0.269876
     75 C23         4.9720   -2.9680   -2.1140 c3        1 MOL     -0.617119
     76 C24         3.5320   -3.6190   -2.3100 c         1 MOL      0.877072
     77 O12         3.3150   -4.3700   -3.1970 o         1 MOL     -0.583975
     78 H34         4.7070   -1.3470   -0.7140 hn        1 MOL      0.108059
     79 H35         5.6850   -3.7810   -2.0100 h1        1 MOL      0.199874
     80 H36         5.0750   -2.3280   -2.9850 h1        1 MOL      0.199874
     81 N9          2.5590   -3.2540   -1.4510 n         1 MOL     -0.711341
     82 C25         1.2370   -3.8950   -1.5700 c3        1 MOL      0.234548
     83 C26         0.2050   -2.9020   -0.9930 c         1 MOL      0.400908
     84 O13         0.4600   -2.2370    0.0140 o         1 MOL     -0.545152
     85 C27         1.0820   -5.1690   -0.7170 c3        1 MOL      0.139989
     86 C28         2.2290   -6.1970   -0.7150 ca        1 MOL     -0.127521
     87 C29         3.4210   -5.8860   -0.0310 ca        1 MOL     -0.074853
     88 C30         2.1610   -7.4710   -1.3840 ca        1 MOL     -0.074853
     89 C31         4.5430   -6.7390   -0.0960 ca        1 MOL     -0.353148
     90 C32         3.2140   -8.4100   -1.3210 ca        1 MOL     -0.353148
     91 C33         4.4690   -8.0450   -0.6750 ca        1 MOL      0.437316
     92 O14         5.5290   -8.8280   -0.6000 oh        1 MOL     -0.496735
     93 H37         2.6970   -2.5170   -0.7650 hn        1 MOL      0.389018
     94 H38         1.0410   -4.2090   -2.6010 h1        1 MOL      0.029596
     95 H39         0.2180   -5.7720   -0.9870 hc        1 MOL     -0.021022
     96 H40         0.9420   -4.9030    0.3360 hc        1 MOL     -0.021022
     97 H41         3.5510   -4.9710    0.5330 ha        1 MOL      0.112626
     98 H42         1.2060   -7.6860   -1.8440 ha        1 MOL      0.112626
     99 H43         5.4800   -6.5470    0.4090 ha        1 MOL      0.150009
    100 H44         3.1420   -9.3400   -1.8720 ha        1 MOL      0.150009
    101 H45         5.4880   -9.6650   -1.0810 ho        1 MOL      0.380213
    102 N10        -0.9750   -2.8360   -1.5860 n         1 MOL     -0.366261
    103 C34        -2.1710   -2.0890   -1.1670 c3        1 MOL     -0.031867
    104 C35        -3.3240   -3.0190   -0.9200 c         1 MOL      0.463145
    105 O15        -3.4280   -4.0990   -1.5010 o         1 MOL     -0.548981
    106 C36        -2.4100   -0.8680   -2.1240 c3        1 MOL      0.046221
    107 C37        -2.6510   -1.3930   -3.5300 c3        1 MOL      0.377196
    108 C38        -1.2490    0.1220   -1.9660 c3        1 MOL     -0.207562
    109 C39        -2.6890   -0.4580   -4.7160 c3        1 MOL     -0.380168
    110 H46        -1.1100   -3.5420   -2.3010 hn        1 MOL      0.236319
    111 H47        -1.8260   -1.6670   -0.2200 h1        1 MOL      0.097300
    112 H48        -3.3340   -0.3640   -1.8270 hc        1 MOL     -0.140847
    113 H49        -3.5690   -1.9740   -3.6080 hc        1 MOL     -0.071757
    114 H50        -1.8040   -2.0470   -3.7590 hc        1 MOL     -0.071757
    115 H51        -1.4350    0.9630   -2.6380 hc        1 MOL      0.084333
    116 H52        -1.1270    0.4740   -0.9350 hc        1 MOL      0.084333
    117 H53        -0.4270   -0.3980   -2.4590 hc        1 MOL      0.084333
    118 H54        -3.2320   -0.8640   -5.5660 hc        1 MOL      0.085400
    119 H55        -3.2010    0.4680   -4.4370 hc        1 MOL      0.085400
    120 H56        -1.6480   -0.2230   -4.9500 hc        1 MOL      0.085400
    121 N11        -4.1650   -2.6150   -0.0230 n         1 MOL     -0.113536
    122 C40        -5.3490   -3.2980    0.3370 c3        1 MOL     -0.007598
    123 C41        -6.6220   -2.5650   -0.2200 c         1 MOL      0.532147
    124 O16        -6.4870   -1.6070   -0.9770 o         1 MOL     -0.428111
    125 C42        -5.3870   -3.2750    1.8580 c3        1 MOL     -0.084476
    126 O17        -5.2370   -1.9980    2.3540 oh        1 MOL     -0.414519
    127 H57        -3.9380   -1.8030    0.5260 hn        1 MOL      0.084234
    128 H58        -5.3110   -4.3360    0.0040 h1        1 MOL      0.095174
    129 H59        -4.6380   -3.9880    2.2070 h1        1 MOL      0.072621
    130 H60        -6.3180   -3.7030    2.2310 h1        1 MOL      0.072621
    131 H61        -4.6100   -1.9700    3.0820 ho        1 MOL      0.400904
    132 N12        -7.8680   -3.0420    0.0830 n         1 MOL     -0.606452
    133 C43        -9.1360   -2.3100   -0.2170 c3        1 MOL      0.281646
    134 C44        -9.1790   -0.9090    0.3760 c         1 MOL      0.442368
    135 O18        -9.5200    0.0880   -0.2420 o         1 MOL     -0.513966
    136 C45       -10.2540   -3.1310    0.3990 c3        1 MOL     -0.187725
    137 H62        -7.9480   -3.7100    0.8440 hn        1 MOL      0.309259
    138 H63        -9.3010   -2.2130   -1.2840 h1        1 MOL      0.049722
    139 H64       -11.1630   -2.8680   -0.1580 hc        1 MOL      0.047465
    140 H65       -10.0340   -4.1930    0.4150 hc        1 MOL      0.047465
    141 H66       -10.3520   -2.8100    1.4320 hc        1 MOL      0.047465
    142 N13        -8.6300   -0.7740    1.6020 n         1 MOL     -0.345495
    143 C46        -8.4740    0.4280    2.3390 c3        1 MOL      0.074871
    144 C47        -7.4030    1.3770    1.7810 c         1 MOL      0.418702
    145 O19        -7.6770    2.5970    1.6570 o         1 MOL     -0.518138
    146 C48        -8.2000    0.0660    3.8110 c3        1 MOL     -0.274426
    147 H67        -8.2030   -1.6060    1.9920 hn        1 MOL      0.255888
    148 H68        -9.4300    0.9470    2.3380 h1        1 MOL      0.104133
    149 H69        -8.7800   -0.7780    4.1990 hc        1 MOL      0.073390
    150 H70        -7.1610   -0.2020    4.0160 hc        1 MOL      0.073390
    151 H71        -8.4550    1.0110    4.2970 hc        1 MOL      0.073390
    152 N14        -6.1680    0.9160    1.3500 n         1 MOL     -0.048103
    153 C49        -5.1480    1.7540    0.6990 c3        1 MOL     -0.329116
    154 C50        -5.4810    2.1960   -0.7460 c         1 MOL      0.483241
    155 O20        -4.9870    3.2540   -1.2390 o         1 MOL     -0.572861
    156 C51        -3.7720    1.1050    0.8200 c3        1 MOL      0.189901
    157 C52        -3.1360    1.1670    2.1440 c3        1 MOL     -0.422595
    158 C53        -1.6370    0.6650    1.8780 c         1 MOL      0.798045
    159 O21        -1.4310   -0.4910    2.1140 o         1 MOL     -0.725978
    160 O22        -0.8090    1.4990    1.4680 o         1 MOL     -0.725978
    161 H72        -5.9780   -0.0790    1.4030 hn        1 MOL     -0.006588
    162 H73        -5.1140    2.7070    1.2390 h1        1 MOL      0.148540
    163 H74        -3.1630    1.5850    0.0480 hc        1 MOL      0.095431
    164 H75        -3.8260    0.0810    0.4600 hc        1 MOL      0.095431
    165 H76        -3.6550    0.5770    2.9030 hc        1 MOL      0.079978
    166 H77        -3.0120    2.2120    2.4110 hc        1 MOL      0.079978
    167 N15        -6.3120    1.4300   -1.4770 n         1 MOL     -0.027723
    168 C54        -6.9490    1.9010   -2.7520 c3        1 MOL     -0.244278
    169 H78        -7.1100    1.0500   -3.4140 h1        1 MOL      0.100258
    170 H79        -7.9050    2.3730   -2.5290 h1        1 MOL      0.100258
    171 H80        -6.2930    2.6220   -3.2410 h1        1 MOL      0.100258
    172 H81        -6.5950    0.5440   -1.0860 hn        1 MOL      0.111809
    173 Ca1         1.2150   -0.2060    1.6960 Ca        1 MOL      1.728790
    174 O23         0.7900   -2.2470    3.4510 oh        1 MOL     -0.773194
    175 H82         0.6490   -2.3010    4.3910 ho        1 MOL      0.390013
    176 H83         1.0910   -3.1120    3.1900 ho        1 MOL      0.390013
    177 O24         0.5360    1.2270    4.0990 oh        1 MOL     -0.773194
    178 H84         0.2040    2.1290    4.1460 ho        1 MOL      0.390013
    179 H85         1.2880    1.2220    4.6830 ho        1 MOL      0.390013
@<TRIPOS>BOND
     1    1    2 1   
     2    1    4 1   
     3    1    5 1   
     4    1    6 1   
     5    2    3 2   
     6    2    7 1   
     7    7    8 1   
     8    7   15 1   
     9    8    9 1   
    10    8   11 1   
    11    8   16 1   
    12    9   10 2   
    13    9   19 1   
    14   11   12 1   
    15   11   17 1   
    16   11   18 1   
    17   12   13 1   
    18   12   14 1   
    19   19   20 1   
    20   19   28 1   
    21   20   21 1   
    22   20   23 1   
    23   20   29 1   
    24   21   22 2   
    25   21   41 1   
    26   23   24 1   
    27   23   30 1   
    28   23   31 1   
    29   24   25 1   
    30   24   32 1   
    31   24   33 1   
    32   25   26 1   
    33   25   34 1   
    34   25   35 1   
    35   26   27 1   
    36   26   36 1   
    37   26   37 1   
    38   27   38 1   
    39   27   39 1   
    40   27   40 1   
    41   41   42 1   
    42   41   49 1   
    43   42   43 1   
    44   42   45 1   
    45   42   50 1   
    46   43   44 2   
    47   43   53 1   
    48   45   46 1   
    49   45   51 1   
    50   45   52 1   
    51   46   47 1   
    52   46   48 1   
    53   53   54 1   
    54   53   57 1   
    55   54   55 1   
    56   54   58 1   
    57   54   59 1   
    58   55   56 2   
    59   55   60 1   
    60   60   61 1   
    61   60   68 1   
    62   61   62 1   
    63   61   64 1   
    64   61   69 1   
    65   62   63 2   
    66   62   74 1   
    67   64   65 1   
    68   64   70 1   
    69   64   71 1   
    70   65   66 1   
    71   65   67 2   
    72   66   72 1   
    73   66   73 1   
    74   74   75 1   
    75   74   78 1   
    76   75   76 1   
    77   75   79 1   
    78   75   80 1   
    79   76   77 2   
    80   76   81 1   
    81   81   82 1   
    82   81   93 1   
    83   82   83 1   
    84   82   85 1   
    85   82   94 1   
    86   83   84 2   
    87   83  102 1   
    88   85   86 1   
    89   85   95 1   
    90   85   96 1   
    91   86   87 ar  
    92   86   88 ar  
    93   87   89 ar  
    94   87   97 1   
    95   88   90 ar  
    96   88   98 1   
    97   89   91 ar  
    98   89   99 1   
    99   90   91 ar  
   100   90  100 1   
   101   91   92 1   
   102   92  101 1   
   103  102  103 1   
   104  102  110 1   
   105  103  104 1   
   106  103  106 1   
   107  103  111 1   
   108  104  105 2   
   109  104  121 1   
   110  106  107 1   
   111  106  108 1   
   112  106  112 1   
   113  107  109 1   
   114  107  113 1   
   115  107  114 1   
   116  108  115 1   
   117  108  116 1   
   118  108  117 1   
   119  109  118 1   
   120  109  119 1   
   121  109  120 1   
   122  121  122 1   
   123  121  127 1   
   124  122  123 1   
   125  122  125 1   
   126  122  128 1   
   127  123  124 2   
   128  123  132 1   
   129  125  126 1   
   130  125  129 1   
   131  125  130 1   
   132  126  131 1   
   133  132  133 1   
   134  132  137 1   
   135  133  134 1   
   136  133  136 1   
   137  133  138 1   
   138  134  135 2   
   139  134  142 1   
   140  136  139 1   
   141  136  140 1   
   142  136  141 1   
   143  142  143 1   
   144  142  147 1   
   145  143  144 1   
   146  143  146 1   
   147  143  148 1   
   148  144  145 2   
   149  144  152 1   
   150  146  149 1   
   151  146  150 1   
   152  146  151 1   
   153  152  153 1   
   154  152  161 1   
   155  153  154 1   
   156  153  156 1   
   157  153  162 1   
   158  154  155 2   
   159  154  167 1   
   160  156  157 1   
   161  156  163 1   
   162  156  164 1   
   163  157  158 1   
   164  157  165 1   
   165  157  166 1   
   166  158  159 1   
   167  158  160 1   
   168  167  168 1   
   169  167  172 1   
   170  168  169 1   
   171  168  170 1   
   172  168  171 1   
   173  174  175 1   
   174  174  176 1   
   175  177  178 1   
   176  177  179 1   
@<TRIPOS>SUBSTRUCTURE
     1 MOL         1 TEMP              0 ****  ****    0 ROOT
