@<TRIPOS>MOLECULE
MOL
  175   173     1     0     0
SMALL
resp


@<TRIPOS>ATOM
      1 C1          0.1820    3.6020    5.8320 c3        1 MOL     -0.457280
      2 C2         -0.2720    3.6900    4.3670 c         1 MOL      0.753588
      3 O1          0.5110    3.7760    3.4360 o         1 MOL     -0.582292
      4 H1          0.1220    2.5680    6.1690 hc        1 MOL      0.109819
      5 H2          1.2100    3.9520    5.9150 hc        1 MOL      0.109819
      6 H3         -0.4660    4.2240    6.4520 hc        1 MOL      0.109819
      7 N1         -1.5630    3.6430    4.1440 n         1 MOL     -0.632399
      8 C3         -2.2230    3.3720    2.8250 c3        1 MOL      0.037444
      9 C4         -2.4340    4.6350    1.9870 c         1 MOL      0.676005
     10 O2         -2.9400    5.6410    2.4850 o         1 MOL     -0.587268
     11 C5         -3.6120    2.7070    3.1400 c3        1 MOL     -0.344521
     12 C6         -4.2180    2.1540    1.8340 c         1 MOL      0.736413
     13 O3         -5.3200    1.5850    1.9600 o         1 MOL     -0.673061
     14 O4         -3.6130    2.0480    0.7370 o         1 MOL     -0.673061
     15 H4         -2.0500    3.5370    5.0200 hn        1 MOL      0.318032
     16 H5         -1.5760    2.6750    2.2940 h1        1 MOL      0.134985
     17 H6         -4.3050    3.3520    3.6830 hc        1 MOL      0.101525
     18 H7         -3.5330    1.8940    3.8680 hc        1 MOL      0.101525
     19 N2         -2.1900    4.5750    0.6860 n         1 MOL     -0.542025
     20 C7         -2.5030    5.5900   -0.3020 c3        1 MOL      0.454529
     21 C8         -3.4780    5.1820   -1.4490 c         1 MOL      0.425251
     22 O5         -3.6330    5.9240   -2.4140 o         1 MOL     -0.557223
     23 C9         -1.2710    6.3370   -0.7600 c3        1 MOL     -0.331338
     24 H8         -1.7170    3.7850    0.2640 hn        1 MOL      0.245043
     25 H9         -3.1710    6.2300    0.2920 h1        1 MOL     -0.050773
     26 H10        -1.5460    7.1820   -1.3770 hc        1 MOL      0.076035
     27 H11        -0.7310    6.6640    0.1300 hc        1 MOL      0.076035
     28 H12        -0.6930    5.6410   -1.3640 hc        1 MOL      0.076035
     29 N3         -3.9850    3.9140   -1.5010 n         1 MOL     -0.456431
     30 C10        -4.7440    3.4150   -2.6880 c3        1 MOL      0.147396
     31 C11        -6.1200    2.5610   -2.4800 c         1 MOL      0.393961
     32 O6         -6.8800    2.3900   -3.4540 o         1 MOL     -0.518466
     33 C12        -3.7850    2.5660   -3.5110 c3        1 MOL     -0.296019
     34 C13        -3.1050    1.5260   -2.5730 c         1 MOL      0.772792
     35 O7         -1.8530    1.4000   -2.5690 o         1 MOL     -0.729961
     36 O8         -3.7760    0.7620   -1.8860 o         1 MOL     -0.729961
     37 H13        -3.6850    3.3360   -0.7220 hn        1 MOL      0.263144
     38 H14        -5.1360    4.2640   -3.2650 h1        1 MOL      0.071548
     39 H15        -2.9480    3.1940   -3.8060 hc        1 MOL      0.077517
     40 H16        -4.2650    2.1460   -4.3900 hc        1 MOL      0.077517
     41 N4         -6.3790    2.1740   -1.2150 n         1 MOL     -0.292984
     42 C14        -7.4970    1.2430   -0.9660 c3        1 MOL     -0.172780
     43 C15        -7.4240   -0.2050   -1.5110 c         1 MOL      0.428140
     44 O9         -8.4590   -0.8570   -1.6020 o         1 MOL     -0.590657
     45 H17        -5.7390    2.3050   -0.4510 hn        1 MOL      0.203524
     46 H18        -8.3880    1.7980   -1.2670 h1        1 MOL      0.112507
     47 H19        -7.5540    1.1410    0.1210 h1        1 MOL      0.112507
     48 N5         -6.2590   -0.7020   -1.8340 n         1 MOL     -0.060095
     49 C16        -6.0990   -2.0020   -2.4260 c3        1 MOL     -0.018863
     50 C17        -6.1360   -3.1960   -1.4360 c         1 MOL      0.427481
     51 O10        -6.0320   -4.3540   -1.7970 o         1 MOL     -0.544752
     52 C18        -4.8720   -2.0070   -3.3650 c3        1 MOL     -0.227560
     53 C19        -3.5700   -1.9750   -2.5560 c         1 MOL      0.504029
     54 N6         -2.4550   -1.9990   -3.2790 n         1 MOL     -0.606797
     55 O11        -3.3790   -2.0340   -1.2970 o         1 MOL     -0.109752
     56 H20        -5.4070   -0.1630   -1.7860 hn        1 MOL      0.147931
     57 H21        -6.9820   -2.1560   -3.0570 h1        1 MOL      0.088203
     58 H22        -4.8930   -1.0660   -3.9060 hc        1 MOL      0.073261
     59 H23        -4.9840   -2.8710   -4.0220 hc        1 MOL      0.073261
     60 H24        -2.4960   -2.0830   -4.2800 hn        1 MOL      0.306112
     61 H25        -1.5590   -1.9180   -2.8130 hn        1 MOL      0.306112
     62 N7         -6.2000   -2.8280   -0.1810 n         1 MOL     -0.309707
     63 C20        -6.2720   -3.8920    0.8800 c3        1 MOL     -0.114735
     64 C21        -4.9530   -4.3720    1.3810 c         1 MOL      0.449110
     65 O12        -5.0040   -5.3380    2.1350 o         1 MOL     -0.605186
     66 H26        -6.0610   -1.8470    0.0240 hn        1 MOL      0.214907
     67 H27        -6.8050   -4.7350    0.4280 h1        1 MOL      0.107755
     68 H28        -6.9420   -3.5760    1.6800 h1        1 MOL      0.107755
     69 N8         -3.8160   -3.8740    1.0240 n         1 MOL     -0.098392
     70 C22        -2.4800   -4.4300    1.3140 c3        1 MOL     -0.191025
     71 C23        -1.3870   -3.3940    1.4430 c         1 MOL      0.605071
     72 O13        -1.6040   -2.2680    1.0930 o         1 MOL     -0.558389
     73 C24        -2.0820   -5.3290    0.1670 c3        1 MOL      0.598258
     74 C25        -2.4830   -6.7830    0.1140 c3        1 MOL     -0.502324
     75 O14        -2.5320   -4.8060   -1.0800 oh        1 MOL     -0.567035
     76 H29        -3.8450   -2.9560    0.6150 hn        1 MOL      0.106915
     77 H30        -2.4320   -5.0720    2.1980 h1        1 MOL      0.083421
     78 H31        -1.0030   -5.3830    0.2560 h1        1 MOL     -0.039589
     79 H32        -2.5200   -3.8450   -1.0770 ho        1 MOL      0.168621
     80 H33        -3.5560   -6.7990    0.2560 hc        1 MOL      0.116264
     81 H34        -2.0210   -7.2080   -0.7800 hc        1 MOL      0.116264
     82 H35        -2.2360   -7.3290    1.0200 hc        1 MOL      0.116264
     83 N9         -0.2280   -3.8180    2.0860 n         1 MOL     -0.633116
     84 C26         0.9540   -2.8710    2.1260 c3        1 MOL     -0.003413
     85 C27         1.6410   -3.0100    0.7910 c         1 MOL      0.603664
     86 O15         1.8820   -4.1280    0.3320 o         1 MOL     -0.606027
     87 C28         1.9150   -3.2490    3.3050 c3        1 MOL      0.211879
     88 C29         1.2720   -2.9870    4.6930 c3        1 MOL      0.071362
     89 C30         3.2400   -2.4780    3.2040 c3        1 MOL     -0.369874
     90 C31         1.9450   -3.4620    5.9620 c3        1 MOL     -0.146848
     91 H36        -0.1270   -4.7570    2.4380 hn        1 MOL      0.316889
     92 H37         0.5820   -1.8530    2.1630 h1        1 MOL      0.103396
     93 H38         2.1980   -4.3020    3.2340 hc        1 MOL     -0.017162
     94 H39         0.3240   -3.5070    4.7680 hc        1 MOL     -0.014560
     95 H40         1.0310   -1.9170    4.6590 hc        1 MOL     -0.014560
     96 H41         3.0490   -1.4840    2.7930 hc        1 MOL      0.078229
     97 H42         3.7410   -2.4220    4.1720 hc        1 MOL      0.078229
     98 H43         3.8550   -2.9090    2.4110 hc        1 MOL      0.078229
     99 H44         2.9110   -2.9690    6.0940 hc        1 MOL      0.029728
    100 H45         1.2980   -3.2400    6.8170 hc        1 MOL      0.029728
    101 H46         2.1990   -4.5230    5.9230 hc        1 MOL      0.029728
    102 N10         1.8550   -1.9240    0.0730 n         1 MOL     -0.051638
    103 C32         2.6870   -1.7480   -1.0840 c3        1 MOL     -0.023934
    104 C33         4.2010   -1.4090   -0.7620 c         1 MOL      0.515134
    105 O16         4.5080   -1.0860    0.4120 o         1 MOL     -0.384640
    106 C34         1.9560   -0.8510   -2.0280 c3        1 MOL     -0.240918
    107 C35         0.4940   -1.4080   -2.3300 c         1 MOL      0.801482
    108 O17        -0.4660   -1.0190   -1.6710 o         1 MOL     -0.691756
    109 O18         0.4210   -2.1810   -3.3110 o         1 MOL     -0.691756
    110 H47         1.5240   -1.0840    0.5220 hn        1 MOL     -0.168876
    111 H48         2.6290   -2.6860   -1.6230 h1        1 MOL      0.043379
    112 H49         2.5260   -0.6990   -2.9420 hc        1 MOL      0.074492
    113 H50         1.9050    0.0600   -1.4300 hc        1 MOL      0.074492
    114 N11         5.0850   -1.5870   -1.7400 n         1 MOL     -0.651195
    115 C36         6.5140   -1.3290   -1.6260 c3        1 MOL      0.366789
    116 C37         6.6770    0.1530   -1.2850 c         1 MOL      0.273157
    117 O19         7.4340    0.4720   -0.3440 o         1 MOL     -0.488563
    118 C38         7.2940   -1.8070   -2.8880 c3        1 MOL     -0.296874
    119 C39         8.7940   -1.4420   -2.6420 ca        1 MOL      0.012384
    120 C40         9.4650   -0.4270   -3.2700 ca        1 MOL     -0.063294
    121 C41         9.4320   -2.1880   -1.6240 ca        1 MOL     -0.063294
    122 C42        10.8570   -0.2560   -3.0180 ca        1 MOL     -0.234797
    123 C43        10.7690   -1.9310   -1.2430 ca        1 MOL     -0.234797
    124 C44        11.4600   -0.9180   -1.8740 ca        1 MOL      0.017744
    125 H51         4.7670   -2.0280   -2.5920 hn        1 MOL      0.349859
    126 H52         6.9140   -1.8430   -0.7570 h1        1 MOL      0.067669
    127 H53         6.9720   -1.3890   -3.8480 hc        1 MOL      0.107841
    128 H54         7.2440   -2.8810   -2.9950 hc        1 MOL      0.107841
    129 H55         9.0050    0.2960   -3.9330 ha        1 MOL      0.104146
    130 H56         8.8580   -2.9670   -1.1460 ha        1 MOL      0.104146
    131 H57        11.3950    0.5510   -3.4930 ha        1 MOL      0.137670
    132 H58        11.2440   -2.4480   -0.4230 ha        1 MOL      0.137670
    133 H59        12.4700   -0.6840   -1.5760 ha        1 MOL      0.078658
    134 N12         5.9790    1.1340   -1.8540 n         1 MOL      0.077204
    135 C45         6.0470    2.5380   -1.4450 c3        1 MOL      0.140508
    136 C46         5.3500    2.8820   -0.0940 c         1 MOL      0.255153
    137 O20         5.3400    4.0550    0.3680 o         1 MOL     -0.522419
    138 C47         5.5160    3.3740   -2.6130 c3        1 MOL     -0.318404
    139 C48         5.7320    2.4630   -3.8340 c3        1 MOL      0.131032
    140 C49         5.5510    1.0380   -3.2160 c3        1 MOL     -0.027813
    141 H60         7.0980    2.7740   -1.3230 h1        1 MOL      0.059376
    142 H61         4.4510    3.5220   -2.4190 hc        1 MOL      0.114538
    143 H62         6.1630    4.2520   -2.7430 hc        1 MOL      0.114538
    144 H63         5.0590    2.7140   -4.6440 hc        1 MOL     -0.012241
    145 H64         6.7560    2.5200   -4.1980 hc        1 MOL     -0.012241
    146 H65         4.4970    0.7630   -3.2230 h1        1 MOL      0.011181
    147 H66         6.1410    0.3710   -3.8400 h1        1 MOL      0.011181
    148 N13         4.9140    1.8550    0.6610 n         1 MOL      0.172158
    149 C50         4.2150    1.9820    1.9040 c3        1 MOL     -0.044540
    150 C51         4.9860    1.1770    2.9980 c         1 MOL      0.298273
    151 O21         4.9200    1.4170    4.2180 o         1 MOL     -0.552207
    152 C52         2.8180    1.4010    1.7530 c3        1 MOL      0.083238
    153 C53         1.8540    2.2340    0.8020 c3        1 MOL     -0.286741
    154 C54         0.4110    1.5470    0.7370 c         1 MOL      0.621286
    155 O22        -0.5410    2.1130    0.1370 o         1 MOL     -0.633510
    156 O23         0.1650    0.4470    1.2750 o         1 MOL     -0.633510
    157 H67         5.2100    0.9330    0.3640 hn        1 MOL     -0.324211
    158 H68         4.2340    3.0180    2.2370 h1        1 MOL      0.101066
    159 H69         2.3600    1.3380    2.7450 hc        1 MOL      0.055726
    160 H70         2.9690    0.3980    1.3500 hc        1 MOL      0.055726
    161 H71         2.3260    2.4510   -0.1660 hc        1 MOL      0.103205
    162 H72         1.7710    3.1730    1.3490 hc        1 MOL      0.103205
    163 N14         5.6730    0.1910    2.5550 n         1 MOL      0.065170
    164 C55         6.6950   -0.4810    3.3670 c3        1 MOL     -0.191176
    165 H73         6.2170   -1.2090    4.0220 h1        1 MOL      0.074140
    166 H74         7.4020   -0.9910    2.7130 h1        1 MOL      0.074140
    167 H75         7.2240    0.2570    3.9700 h1        1 MOL      0.074140
    168 H76         5.6620    0.0220    1.5570 hn        1 MOL      0.125374
    169 Ca1        -2.1450    0.0760   -0.0440 Ca        1 MOL      1.635103
    170 O24        -4.5530   -1.0170    1.3240 oh        1 MOL     -0.771766
    171 H77        -4.8360   -0.1170    1.4890 ho        1 MOL      0.371353
    172 H78        -4.4500   -1.3970    2.1910 ho        1 MOL      0.371353
    173 O25        -2.0050    0.0160    2.7750 oh        1 MOL     -0.771766
    174 H79        -2.0340    0.3290    3.6860 ho        1 MOL      0.371353
    175 H80        -1.0780   -0.0240    2.5710 ho        1 MOL      0.371353
@<TRIPOS>BOND
     1    1    2 1   
     2    1    4 1   
     3    1    5 1   
     4    1    6 1   
     5    2    3 2   
     6    2    7 1   
     7    7    8 1   
     8    7   15 1   
     9    8    9 1   
    10    8   11 1   
    11    8   16 1   
    12    9   10 2   
    13    9   19 1   
    14   11   12 1   
    15   11   17 1   
    16   11   18 1   
    17   12   13 1   
    18   12   14 1   
    19   19   20 1   
    20   19   24 1   
    21   20   21 1   
    22   20   23 1   
    23   20   25 1   
    24   21   22 2   
    25   21   29 1   
    26   23   26 1   
    27   23   27 1   
    28   23   28 1   
    29   29   30 1   
    30   29   37 1   
    31   30   31 1   
    32   30   33 1   
    33   30   38 1   
    34   31   32 2   
    35   31   41 1   
    36   33   34 1   
    37   33   39 1   
    38   33   40 1   
    39   34   35 1   
    40   34   36 1   
    41   41   42 1   
    42   41   45 1   
    43   42   43 1   
    44   42   46 1   
    45   42   47 1   
    46   43   44 2   
    47   43   48 1   
    48   48   49 1   
    49   48   56 1   
    50   49   50 1   
    51   49   52 1   
    52   49   57 1   
    53   50   51 2   
    54   50   62 1   
    55   52   53 1   
    56   52   58 1   
    57   52   59 1   
    58   53   54 1   
    59   53   55 2   
    60   54   60 1   
    61   54   61 1   
    62   62   63 1   
    63   62   66 1   
    64   63   64 1   
    65   63   67 1   
    66   63   68 1   
    67   64   65 2   
    68   64   69 1   
    69   69   70 1   
    70   69   76 1   
    71   70   71 1   
    72   70   73 1   
    73   70   77 1   
    74   71   72 2   
    75   71   83 1   
    76   73   74 1   
    77   73   75 1   
    78   73   78 1   
    79   74   80 1   
    80   74   81 1   
    81   74   82 1   
    82   75   79 1   
    83   83   84 1   
    84   83   91 1   
    85   84   85 1   
    86   84   87 1   
    87   84   92 1   
    88   85   86 2   
    89   85  102 1   
    90   87   88 1   
    91   87   89 1   
    92   87   93 1   
    93   88   90 1   
    94   88   94 1   
    95   88   95 1   
    96   89   96 1   
    97   89   97 1   
    98   89   98 1   
    99   90   99 1   
   100   90  100 1   
   101   90  101 1   
   102  102  103 1   
   103  102  110 1   
   104  103  104 1   
   105  103  106 1   
   106  103  111 1   
   107  104  105 2   
   108  104  114 1   
   109  106  107 1   
   110  106  112 1   
   111  106  113 1   
   112  107  108 1   
   113  107  109 1   
   114  114  115 1   
   115  114  125 1   
   116  115  116 1   
   117  115  118 1   
   118  115  126 1   
   119  116  117 2   
   120  116  134 1   
   121  118  119 1   
   122  118  127 1   
   123  118  128 1   
   124  119  120 ar  
   125  119  121 ar  
   126  120  122 ar  
   127  120  129 1   
   128  121  123 ar  
   129  121  130 1   
   130  122  124 ar  
   131  122  131 1   
   132  123  124 ar  
   133  123  132 1   
   134  124  133 1   
   135  134  135 1   
   136  134  140 1   
   137  135  136 1   
   138  135  138 1   
   139  135  141 1   
   140  136  137 2   
   141  136  148 1   
   142  138  139 1   
   143  138  142 1   
   144  138  143 1   
   145  139  140 1   
   146  139  144 1   
   147  139  145 1   
   148  140  146 1   
   149  140  147 1   
   150  148  149 1   
   151  148  157 1   
   152  149  150 1   
   153  149  152 1   
   154  149  158 1   
   155  150  151 2   
   156  150  163 1   
   157  152  153 1   
   158  152  159 1   
   159  152  160 1   
   160  153  154 1   
   161  153  161 1   
   162  153  162 1   
   163  154  155 1   
   164  154  156 1   
   165  163  164 1   
   166  163  168 1   
   167  164  165 1   
   168  164  166 1   
   169  164  167 1   
   170  170  171 1   
   171  170  172 1   
   172  173  174 1   
   173  173  175 1   
@<TRIPOS>SUBSTRUCTURE
     1 MOL         1 TEMP              0 ****  ****    0 ROOT
