@<TRIPOS>MOLECULE
MOL
  189   185     1     0     0
SMALL
resp


@<TRIPOS>ATOM
      1 C1          0.5230    2.3740    5.5450 c3        1 MOL     -0.250206
      2 C2         -0.1160    2.2360    4.1390 c         1 MOL      0.699115
      3 O1          0.4380    2.7990    3.1970 o         1 MOL     -0.613600
      4 H1          0.3970    3.3960    5.9020 hc        1 MOL      0.063818
      5 H2          0.0370    1.6850    6.2350 hc        1 MOL      0.063818
      6 H3          1.5860    2.1390    5.4850 hc        1 MOL      0.063818
      7 N1         -1.2370    1.5260    3.9890 n         1 MOL     -0.632345
      8 C3         -1.8990    1.3570    2.7170 c3        1 MOL      0.223538
      9 C4         -2.4580    2.7070    2.1670 c         1 MOL      0.520529
     10 O2         -3.3380    3.2960    2.7950 o         1 MOL     -0.586212
     11 C5         -2.9880    0.2530    2.8870 c3        1 MOL     -0.320866
     12 C6         -3.7680    0.0050    1.6380 c         1 MOL      0.812501
     13 O3         -3.2860    0.4000    0.5550 o         1 MOL     -0.739008
     14 O4         -4.7510   -0.7820    1.6760 o         1 MOL     -0.739008
     15 H4         -1.5730    1.0340    4.8020 hn        1 MOL      0.335386
     16 H5         -1.1830    1.0180    1.9730 h1        1 MOL      0.013923
     17 H6         -3.5650    0.4390    3.7830 hc        1 MOL      0.084176
     18 H7         -2.3120   -0.5890    3.0010 hc        1 MOL      0.084176
     19 N2         -2.0160    3.1800    1.0020 n         1 MOL     -0.359216
     20 C7         -2.2160    4.6090    0.6440 c3        1 MOL      0.138961
     21 C8         -3.2600    4.8390   -0.4500 c         1 MOL      0.274677
     22 O5         -3.7160    5.9570   -0.6940 o         1 MOL     -0.525616
     23 C9         -0.8760    5.1800    0.2090 c3        1 MOL     -0.002922
     24 C10        -0.7600    6.7050   -0.0500 c3        1 MOL     -0.124630
     25 C11        -1.2210    7.5630    1.1070 c3        1 MOL     -0.211784
     26 C12        -0.2960    7.3400    2.2950 c3        1 MOL      0.083820
     27 N3         -1.0250    7.6990    3.5060 n4        1 MOL     -0.393225
     28 H8         -1.5510    2.5760    0.3350 hn        1 MOL      0.234948
     29 H9         -2.5710    5.1810    1.5010 h1        1 MOL      0.073689
     30 H10        -0.6140    4.7940   -0.7790 hc        1 MOL      0.032195
     31 H11        -0.0850    4.8990    0.9070 hc        1 MOL      0.032195
     32 H12        -1.3500    7.0510   -0.9010 hc        1 MOL      0.066677
     33 H13         0.2260    6.9870   -0.4260 hc        1 MOL      0.066677
     34 H14        -2.2610    7.2780    1.2150 hc        1 MOL      0.084266
     35 H15        -1.2050    8.5970    0.7790 hc        1 MOL      0.084266
     36 H16         0.6120    7.9240    2.1810 hx        1 MOL      0.082513
     37 H17        -0.0070    6.2860    2.2970 hx        1 MOL      0.082513
     38 H18        -0.4390    7.4920    4.2940 hn        1 MOL      0.336937
     39 H19        -1.2130    8.6910    3.4840 hn        1 MOL      0.336937
     40 H20        -1.9110    7.2000    3.4950 hn        1 MOL      0.336937
     41 N4         -3.5240    3.7800   -1.2150 n         1 MOL     -0.050310
     42 C13        -4.6600    3.6910   -2.1560 c3        1 MOL     -0.032319
     43 C14        -5.8470    2.8010   -1.6820 c         1 MOL      0.423340
     44 O6         -6.8810    2.6930   -2.4010 o         1 MOL     -0.513471
     45 C15        -4.0750    3.3000   -3.5880 c3        1 MOL     -0.087036
     46 C16        -3.3510    1.9910   -3.6610 c         1 MOL      0.680078
     47 O7         -3.5970    1.1370   -2.7820 o         1 MOL     -0.671984
     48 O8         -2.6820    1.6950   -4.7100 o         1 MOL     -0.671984
     49 H21        -3.0660    2.9300   -0.9020 hn        1 MOL      0.066327
     50 H22        -5.0500    4.6850   -2.3460 h1        1 MOL      0.098838
     51 H23        -3.3290    4.0580   -3.8300 hc        1 MOL      0.021538
     52 H24        -4.8760    3.3950   -4.3220 hc        1 MOL      0.021538
     53 N5         -5.7280    2.2080   -0.4710 n         1 MOL     -0.318844
     54 C17        -6.8360    1.4470    0.2130 c3        1 MOL     -0.157714
     55 C18        -7.2610    0.1020   -0.4490 c         1 MOL      0.568586
     56 O9         -8.3970   -0.3630   -0.2510 o         1 MOL     -0.594963
     57 H25        -4.8000    2.1250   -0.0710 hn        1 MOL      0.229596
     58 H26        -7.6820    2.1030    0.4250 h1        1 MOL      0.103212
     59 H27        -6.3120    1.2320    1.1390 h1        1 MOL      0.103212
     60 N6         -6.3830   -0.4690   -1.2750 n         1 MOL     -0.328852
     61 C19        -6.5870   -1.7520   -1.9820 c3        1 MOL     -0.055286
     62 C20        -6.5530   -3.0230   -1.0500 c         1 MOL      0.409376
     63 O10        -6.7210   -4.1510   -1.4870 o         1 MOL     -0.526226
     64 C21        -5.7300   -1.8320   -3.1880 c3        1 MOL     -0.292953
     65 C22        -4.2420   -1.8720   -2.8100 c         1 MOL      0.796254
     66 O11        -3.8540   -2.1460   -1.6570 o         1 MOL     -0.694921
     67 O12        -3.3950   -1.7660   -3.7210 o         1 MOL     -0.694921
     68 H28        -5.4530   -0.0550   -1.3210 hn        1 MOL      0.313906
     69 H29        -7.6170   -1.7720   -2.3430 h1        1 MOL      0.119812
     70 H30        -5.8960   -0.9210   -3.7630 hc        1 MOL      0.109346
     71 H31        -5.9690   -2.6670   -3.8550 hc        1 MOL      0.109346
     72 N7         -6.3460   -2.7850    0.2070 n         1 MOL     -0.199849
     73 C23        -6.2580   -3.7510    1.2680 c3        1 MOL     -0.072387
     74 C24        -4.9400   -4.4900    1.5370 c         1 MOL      0.515529
     75 O13        -4.9560   -5.5780    2.1270 o         1 MOL     -0.569502
     76 H32        -6.4040   -1.8190    0.5170 hn        1 MOL      0.283045
     77 H33        -6.9560   -4.5680    1.0820 h1        1 MOL      0.064090
     78 H34        -6.5990   -3.2760    2.1880 h1        1 MOL      0.064090
     79 N8         -3.8270   -4.0010    0.9410 n         1 MOL     -0.147014
     80 C25        -2.5250   -4.5730    0.9320 c3        1 MOL     -0.261172
     81 C26        -1.3820   -3.5870    1.1410 c         1 MOL      0.764602
     82 O14        -1.5250   -2.4390    0.7830 o         1 MOL     -0.672502
     83 C27        -2.2860   -5.2430   -0.4450 c3        1 MOL      0.525608
     84 C28        -2.8640   -6.6520   -0.4080 c3        1 MOL     -0.475877
     85 O15        -3.0200   -4.6380   -1.5160 oh        1 MOL     -0.664010
     86 H35        -3.9330   -3.1160    0.4680 hn        1 MOL      0.146999
     87 H36        -2.4700   -5.3470    1.6990 h1        1 MOL      0.106031
     88 H37        -1.2450   -5.1580   -0.7730 h1        1 MOL     -0.076228
     89 H38        -3.2920   -3.7320   -1.3200 ho        1 MOL      0.439818
     90 H39        -2.8730   -7.1210   -1.3950 hc        1 MOL      0.124050
     91 H40        -2.2740   -7.2700    0.2680 hc        1 MOL      0.124050
     92 H41        -3.8810   -6.4870   -0.0480 hc        1 MOL      0.124050
     93 N9         -0.2450   -4.0180    1.6340 n         1 MOL     -0.770472
     94 C29         0.9400   -3.1310    1.8520 c3        1 MOL      0.017714
     95 C30         2.1180   -3.5750    0.9440 c         1 MOL      0.644932
     96 O16         2.6350   -4.7010    1.0350 o         1 MOL     -0.581044
     97 C31         1.3210   -3.0330    3.4020 c3        1 MOL      0.167985
     98 C32         0.0280   -2.5700    4.1630 c3        1 MOL      0.065494
     99 C33         2.5290   -2.1350    3.6590 c3        1 MOL     -0.167663
    100 C34        -0.0080   -2.6440    5.7290 c3        1 MOL     -0.333613
    101 H42        -0.1600   -5.0010    1.8200 hn        1 MOL      0.356637
    102 H43         0.6500   -2.1300    1.5470 h1        1 MOL      0.202293
    103 H44         1.7140   -3.9870    3.7530 hc        1 MOL     -0.018566
    104 H45        -0.7730   -3.2560    3.8780 hc        1 MOL      0.019823
    105 H46        -0.2210   -1.5710    3.8230 hc        1 MOL      0.019823
    106 H47         2.0500   -1.1640    3.4950 hc        1 MOL      0.009218
    107 H48         2.7540   -2.1030    4.7290 hc        1 MOL      0.009218
    108 H49         3.3810   -2.3070    3.0000 hc        1 MOL      0.009218
    109 H50         0.9320   -2.2780    6.1280 hc        1 MOL      0.084189
    110 H51        -0.9020   -2.1050    6.0580 hc        1 MOL      0.084189
    111 H52        -0.2300   -3.6090    6.1930 hc        1 MOL      0.084189
    112 N10         2.5060   -2.6590    0.1240 n         1 MOL     -0.322251
    113 C35         3.7320   -2.8690   -0.6460 c3        1 MOL      0.003439
    114 C36         5.0320   -2.6320    0.1350 c         1 MOL      0.337073
    115 O17         5.1380   -1.9750    1.1880 o         1 MOL     -0.344989
    116 C37         3.6520   -1.9930   -1.8940 c3        1 MOL      0.023414
    117 C38         2.3070   -2.1370   -2.7570 c3        1 MOL     -0.378028
    118 O18         3.8390   -0.5880   -1.6360 oh        1 MOL     -0.494019
    119 H53         2.1230   -1.7310    0.0700 hn        1 MOL      0.214066
    120 H54         3.8030   -3.9070   -0.9850 h1        1 MOL      0.083349
    121 H55         4.5260   -2.2660   -2.4860 h1        1 MOL      0.071568
    122 H56         3.1320   -0.1360   -2.0910 ho        1 MOL      0.410328
    123 H57         2.5470   -1.8260   -3.7750 hc        1 MOL      0.126823
    124 H58         1.9930   -3.1740   -2.8790 hc        1 MOL      0.126823
    125 H59         1.4340   -1.5960   -2.3920 hc        1 MOL      0.126823
    126 N11         6.1180   -3.0010   -0.5580 n         1 MOL     -0.203806
    127 C39         7.5540   -2.6550   -0.1950 c3        1 MOL     -0.279726
    128 C40         7.7800   -1.1180   -0.1160 c         1 MOL      0.409586
    129 O19         8.5610   -0.5400    0.6800 o         1 MOL     -0.474611
    130 C41         8.6020   -3.2720   -1.2090 c3        1 MOL      0.418357
    131 C42         8.3860   -4.7640   -1.3580 c3        1 MOL     -0.272549
    132 O20         8.4680   -2.6400   -2.4460 oh        1 MOL     -0.673386
    133 H60         5.9390   -3.4870   -1.4270 hn        1 MOL      0.255532
    134 H61         7.7670   -3.0910    0.7790 h1        1 MOL      0.166655
    135 H62         9.6160   -3.0560   -0.8740 h1        1 MOL      0.015555
    136 H63         9.1990   -2.9040   -3.0160 ho        1 MOL      0.416938
    137 H64         7.3300   -5.0260   -1.2910 hc        1 MOL      0.071005
    138 H65         8.8520   -5.0890   -2.2850 hc        1 MOL      0.071005
    139 H66         8.9230   -5.2190   -0.5220 hc        1 MOL      0.071005
    140 N12         7.0640   -0.3660   -0.9640 n         1 MOL     -0.216880
    141 C43         6.9960    1.1210   -0.9750 c3        1 MOL     -0.056351
    142 C44         6.1560    1.6810    0.1080 c         1 MOL      0.360035
    143 O21         6.5590    2.5440    0.9010 o         1 MOL     -0.533423
    144 C45         6.4320    1.6360   -2.3580 c3        1 MOL      0.042850
    145 C46         6.4760    3.1000   -2.5650 c3        1 MOL     -0.193453
    146 C47         5.7880    3.4660   -3.9410 c3        1 MOL      0.010664
    147 C48         6.4510    2.8040   -5.1820 c3        1 MOL     -0.130685
    148 N13         6.4050    3.6940   -6.3830 n4        1 MOL     -0.124552
    149 H67         6.6150   -0.8960   -1.6950 hn        1 MOL      0.214225
    150 H68         7.9930    1.5110   -0.7860 h1        1 MOL      0.110243
    151 H69         5.4030    1.2980   -2.4760 hc        1 MOL      0.000536
    152 H70         7.0130    1.1190   -3.1300 hc        1 MOL      0.000536
    153 H71         7.5330    3.3530   -2.6680 hc        1 MOL      0.087015
    154 H72         5.9830    3.6350   -1.7490 hc        1 MOL      0.087015
    155 H73         5.7240    4.5430   -4.0400 hc        1 MOL      0.043604
    156 H74         4.7310    3.1770   -3.9260 hc        1 MOL      0.043604
    157 H75         5.9030    1.8940   -5.4450 hx        1 MOL      0.127273
    158 H76         7.4880    2.5960   -4.9120 hx        1 MOL      0.127273
    159 H77         5.4990    3.9820   -6.7490 hn        1 MOL      0.245925
    160 H78         6.7520    4.6010   -6.0980 hn        1 MOL      0.245925
    161 H79         6.9820    3.4090   -7.1660 hn        1 MOL      0.245925
    162 N14         4.9670    1.1950    0.4120 n         1 MOL      0.080283
    163 C49         4.0250    1.7380    1.4300 c3        1 MOL     -0.333547
    164 C50         4.4550    1.8030    2.8990 c         1 MOL      0.536413
    165 O22         4.1530    2.6470    3.7020 o         1 MOL     -0.551556
    166 C51         2.6950    0.9680    1.3090 c3        1 MOL      0.273782
    167 C52         1.9580    1.3930   -0.0280 c3        1 MOL     -0.155365
    168 C53         0.6600    0.7770   -0.3160 c         1 MOL      0.629762
    169 O23         0.5760   -0.4820   -0.3710 o         1 MOL     -0.708613
    170 O24        -0.3550    1.5020   -0.6300 o         1 MOL     -0.708613
    171 H80         4.6530    0.4350   -0.1710 hn        1 MOL     -0.004803
    172 H81         3.8820    2.7760    1.1250 h1        1 MOL      0.127804
    173 H82         2.0340    1.3000    2.1090 hc        1 MOL     -0.023221
    174 H83         2.9040   -0.0920    1.4620 hc        1 MOL     -0.023221
    175 H84         2.6570    1.2400   -0.8580 hc        1 MOL      0.026442
    176 H85         1.8090    2.4790    0.0240 hc        1 MOL      0.026442
    177 N15         5.1500    0.7200    3.3030 n         1 MOL     -0.107696
    178 C54         5.8490    0.5400    4.5630 c3        1 MOL     -0.351563
    179 H86         5.8440    1.4790    5.1180 h1        1 MOL      0.128615
    180 H87         5.3500   -0.2300    5.1500 h1        1 MOL      0.128615
    181 H88         6.8790    0.2390    4.3680 h1        1 MOL      0.128615
    182 H89         5.2520   -0.0230    2.6320 hn        1 MOL      0.197098
    183 Ca1        -1.8190   -0.6360   -1.3710 Ca        1 MOL      1.747723
    184 O25        -0.9260   -2.9540   -2.3890 oh        1 MOL     -0.861307
    185 H90        -1.4710   -3.7190   -2.2040 ho        1 MOL      0.400515
    186 H91        -0.3570   -3.2390   -3.1070 ho        1 MOL      0.400515
    187 O26        -0.2460    0.2410   -3.3110 oh        1 MOL     -0.861307
    188 H92         0.6660    0.3980   -3.5280 ho        1 MOL      0.400515
    189 H93        -0.7390    0.5730   -4.0700 ho        1 MOL      0.400515
@<TRIPOS>BOND
     1    1    2 1   
     2    1    4 1   
     3    1    5 1   
     4    1    6 1   
     5    2    3 2   
     6    2    7 1   
     7    7    8 1   
     8    7   15 1   
     9    8    9 1   
    10    8   11 1   
    11    8   16 1   
    12    9   10 2   
    13    9   19 1   
    14   11   12 1   
    15   11   17 1   
    16   11   18 1   
    17   12   13 1   
    18   12   14 1   
    19   19   20 1   
    20   19   28 1   
    21   20   21 1   
    22   20   23 1   
    23   20   29 1   
    24   21   22 2   
    25   21   41 1   
    26   23   24 1   
    27   23   30 1   
    28   23   31 1   
    29   24   25 1   
    30   24   32 1   
    31   24   33 1   
    32   25   26 1   
    33   25   34 1   
    34   25   35 1   
    35   26   27 1   
    36   26   36 1   
    37   26   37 1   
    38   27   38 1   
    39   27   39 1   
    40   27   40 1   
    41   41   42 1   
    42   41   49 1   
    43   42   43 1   
    44   42   45 1   
    45   42   50 1   
    46   43   44 2   
    47   43   53 1   
    48   45   46 1   
    49   45   51 1   
    50   45   52 1   
    51   46   47 1   
    52   46   48 1   
    53   53   54 1   
    54   53   57 1   
    55   54   55 1   
    56   54   58 1   
    57   54   59 1   
    58   55   56 2   
    59   55   60 1   
    60   60   61 1   
    61   60   68 1   
    62   61   62 1   
    63   61   64 1   
    64   61   69 1   
    65   62   63 2   
    66   62   72 1   
    67   64   65 1   
    68   64   70 1   
    69   64   71 1   
    70   65   66 1   
    71   65   67 1   
    72   72   73 1   
    73   72   76 1   
    74   73   74 1   
    75   73   77 1   
    76   73   78 1   
    77   74   75 2   
    78   74   79 1   
    79   79   80 1   
    80   79   86 1   
    81   80   81 1   
    82   80   83 1   
    83   80   87 1   
    84   81   82 2   
    85   81   93 1   
    86   83   84 1   
    87   83   85 1   
    88   83   88 1   
    89   84   90 1   
    90   84   91 1   
    91   84   92 1   
    92   85   89 1   
    93   93   94 1   
    94   93  101 1   
    95   94   95 1   
    96   94   97 1   
    97   94  102 1   
    98   95   96 2   
    99   95  112 1   
   100   97   98 1   
   101   97   99 1   
   102   97  103 1   
   103   98  100 1   
   104   98  104 1   
   105   98  105 1   
   106   99  106 1   
   107   99  107 1   
   108   99  108 1   
   109  100  109 1   
   110  100  110 1   
   111  100  111 1   
   112  112  113 1   
   113  112  119 1   
   114  113  114 1   
   115  113  116 1   
   116  113  120 1   
   117  114  115 2   
   118  114  126 1   
   119  116  117 1   
   120  116  118 1   
   121  116  121 1   
   122  117  123 1   
   123  117  124 1   
   124  117  125 1   
   125  118  122 1   
   126  126  127 1   
   127  126  133 1   
   128  127  128 1   
   129  127  130 1   
   130  127  134 1   
   131  128  129 2   
   132  128  140 1   
   133  130  131 1   
   134  130  132 1   
   135  130  135 1   
   136  131  137 1   
   137  131  138 1   
   138  131  139 1   
   139  132  136 1   
   140  140  141 1   
   141  140  149 1   
   142  141  142 1   
   143  141  144 1   
   144  141  150 1   
   145  142  143 2   
   146  142  162 1   
   147  144  145 1   
   148  144  151 1   
   149  144  152 1   
   150  145  146 1   
   151  145  153 1   
   152  145  154 1   
   153  146  147 1   
   154  146  155 1   
   155  146  156 1   
   156  147  148 1   
   157  147  157 1   
   158  147  158 1   
   159  148  159 1   
   160  148  160 1   
   161  148  161 1   
   162  162  163 1   
   163  162  171 1   
   164  163  164 1   
   165  163  166 1   
   166  163  172 1   
   167  164  165 2   
   168  164  177 1   
   169  166  167 1   
   170  166  173 1   
   171  166  174 1   
   172  167  168 1   
   173  167  175 1   
   174  167  176 1   
   175  168  169 1   
   176  168  170 1   
   177  177  178 1   
   178  177  182 1   
   179  178  179 1   
   180  178  180 1   
   181  178  181 1   
   182  184  185 1   
   183  184  186 1   
   184  187  188 1   
   185  187  189 1   
@<TRIPOS>SUBSTRUCTURE
     1 MOL         1 TEMP              0 ****  ****    0 ROOT
