@<TRIPOS>MOLECULE
MOL
  182   178     1     0     0
SMALL
resp


@<TRIPOS>ATOM
      1 C1          2.5700    1.9070    5.5260 c3        1 MOL     -0.251920
      2 C2          1.8130    1.9810    4.1560 c         1 MOL      0.691560
      3 O1          2.5390    1.8430    3.1130 o         1 MOL     -0.592954
      4 H1          3.6440    1.9750    5.3520 hc        1 MOL      0.069440
      5 H2          2.2540    2.7350    6.1620 hc        1 MOL      0.069440
      6 H3          2.3410    0.9630    6.0190 hc        1 MOL      0.069440
      7 N1          0.4370    2.1620    4.1060 n         1 MOL     -0.615871
      8 C3         -0.2980    2.0240    2.8420 c3        1 MOL      0.155968
      9 C4         -0.3580    3.3620    2.1220 c         1 MOL      0.429761
     10 O2         -0.9820    4.3560    2.5190 o         1 MOL     -0.512614
     11 C5         -1.6980    1.4570    3.2750 c3        1 MOL     -0.362918
     12 C6         -2.6310    1.2970    2.0110 c         1 MOL      0.780011
     13 O3         -3.7430    0.6840    2.2980 o         1 MOL     -0.722981
     14 O4         -2.2170    1.6160    0.8570 o         1 MOL     -0.722981
     15 H4         -0.0530    2.0440    4.9790 hn        1 MOL      0.336898
     16 H5          0.1310    1.2530    2.1930 h1        1 MOL      0.007254
     17 H6         -2.2040    2.0710    4.0150 hc        1 MOL      0.112810
     18 H7         -1.5790    0.4330    3.6230 hc        1 MOL      0.112810
     19 N2          0.3220    3.4660    0.9460 n         1 MOL      0.024413
     20 C7          0.7850    4.7410    0.4290 c3        1 MOL     -0.221032
     21 C8         -0.2430    5.4740   -0.4500 c         1 MOL      0.505243
     22 O5         -0.3450    6.6780   -0.4250 o         1 MOL     -0.572068
     23 C9          2.1550    4.5770   -0.3800 c3        1 MOL     -0.130744
     24 C10         3.0130    5.8430   -0.5420 c3        1 MOL     -0.058649
     25 C11         4.4570    5.6780   -1.0180 c3        1 MOL     -0.026280
     26 C12         5.2490    6.9670   -1.1000 c3        1 MOL      0.042318
     27 N3          5.7420    7.4730    0.1840 n4        1 MOL     -0.472870
     28 H8          0.7570    2.6230    0.6100 hn        1 MOL      0.058912
     29 H9          1.0910    5.3880    1.2470 h1        1 MOL      0.125264
     30 H10         2.0470    4.0750   -1.3380 hc        1 MOL      0.089051
     31 H11         2.8180    3.9290    0.1820 hc        1 MOL      0.089051
     32 H12         3.0120    6.1990    0.4820 hc        1 MOL      0.040113
     33 H13         2.4830    6.5830   -1.1540 hc        1 MOL      0.040113
     34 H14         4.4020    5.2920   -2.0350 hc        1 MOL      0.063494
     35 H15         4.9920    5.0400   -0.3060 hc        1 MOL      0.063494
     36 H16         4.6200    7.7400   -1.5240 hx        1 MOL      0.080012
     37 H17         6.0690    6.7120   -1.7740 hx        1 MOL      0.080012
     38 H18         5.9110    8.4630    0.0740 hn        1 MOL      0.364887
     39 H19         5.0550    7.3350    0.9160 hn        1 MOL      0.364887
     40 H20         6.6170    7.0410    0.4310 hn        1 MOL      0.364887
     41 N4         -1.0860    4.7220   -1.0850 n         1 MOL     -0.229506
     42 C13        -2.3840    5.0850   -1.7220 c3        1 MOL      0.064123
     43 C14        -3.7160    4.8170   -0.9230 c         1 MOL      0.381719
     44 O6         -4.7880    5.1830   -1.3220 o         1 MOL     -0.516418
     45 C15        -2.4280    4.6160   -3.1350 c3        1 MOL     -0.293130
     46 C16        -2.7390    3.1170   -3.2710 c         1 MOL      0.871496
     47 O7         -2.7050    2.3640   -2.2600 o         1 MOL     -0.736266
     48 O8         -3.0060    2.6410   -4.3970 o         1 MOL     -0.736266
     49 H21        -0.8190    3.7510   -1.1430 hn        1 MOL      0.129482
     50 H22        -2.2790    6.1670   -1.8620 h1        1 MOL      0.099357
     51 H23        -1.4970    4.9370   -3.6100 hc        1 MOL      0.068199
     52 H24        -3.2790    5.0880   -3.6280 hc        1 MOL      0.068199
     53 N5         -3.5020    4.2010    0.2130 n         1 MOL     -0.009499
     54 C17        -4.4980    3.9760    1.2650 c3        1 MOL     -0.221211
     55 C18        -5.7130    3.0410    0.8890 c         1 MOL      0.531630
     56 O9         -6.7690    3.0030    1.5260 o         1 MOL     -0.570976
     57 H25        -2.6150    3.7230    0.3160 hn        1 MOL     -0.009617
     58 H26        -4.9070    4.9280    1.5980 h1        1 MOL      0.117228
     59 H27        -3.9480    3.4670    2.0570 h1        1 MOL      0.117228
     60 N6         -5.5120    2.1840   -0.1200 n         1 MOL     -0.146018
     61 C19        -6.4720    1.3500   -0.7780 c3        1 MOL     -0.196515
     62 C20        -6.9430    0.1290    0.0340 c         1 MOL      0.336546
     63 O10        -7.8390   -0.6110   -0.4110 o         1 MOL     -0.493764
     64 C21        -5.8970    0.8880   -2.1450 c3        1 MOL     -0.007014
     65 C22        -4.9420   -0.2060   -1.9760 c         1 MOL      0.427181
     66 N7         -5.1170   -1.3060   -2.6550 n         1 MOL     -0.766479
     67 O11        -3.9410   -0.1510   -1.2490 o         1 MOL     -0.546766
     68 H28        -4.5410    2.1490   -0.3910 hn        1 MOL      0.133036
     69 H29        -7.3340    2.0000   -0.9240 h1        1 MOL      0.154359
     70 H30        -5.5720    1.7490   -2.7240 hc        1 MOL      0.073588
     71 H31        -6.6710    0.5920   -2.8580 hc        1 MOL      0.073588
     72 H32        -5.9570   -1.3560   -3.2150 hn        1 MOL      0.377014
     73 H33        -4.6250   -2.1920   -2.5760 hn        1 MOL      0.377014
     74 N8         -6.2530   -0.1820    1.1500 n         1 MOL      0.027128
     75 C23        -6.4720   -1.3520    2.0850 c3        1 MOL     -0.532786
     76 C24        -5.3470   -2.3680    2.0570 c         1 MOL      0.707486
     77 O12        -5.5280   -3.4940    2.5410 o         1 MOL     -0.579225
     78 H34        -5.5870    0.5270    1.4170 hn        1 MOL      0.208918
     79 H35        -7.3220   -2.0090    1.9070 h1        1 MOL      0.201148
     80 H36        -6.5480   -0.9320    3.0910 h1        1 MOL      0.201148
     81 N9         -4.2310   -2.1160    1.4120 n         1 MOL     -0.700603
     82 C25        -3.1480   -3.0820    1.1870 c3        1 MOL      0.356127
     83 C26        -1.7160   -2.4070    1.1440 c         1 MOL      0.285476
     84 O13        -1.4920   -1.3330    0.6530 o         1 MOL     -0.436152
     85 C27        -3.2740   -3.6890   -0.2240 c3        1 MOL      0.123228
     86 C28        -4.5580   -4.4590   -0.5190 ca        1 MOL     -0.123802
     87 C29        -5.7370   -3.7700   -0.6860 ca        1 MOL     -0.115182
     88 C30        -4.5160   -5.8920   -0.6270 ca        1 MOL     -0.115182
     89 C31        -6.9000   -4.4800   -0.9380 ca        1 MOL     -0.237711
     90 C32        -5.6810   -6.5810   -0.8880 ca        1 MOL     -0.237711
     91 C33        -6.8930   -5.8850   -1.0000 ca        1 MOL      0.368133
     92 O14        -8.0210   -6.5170   -1.3270 oh        1 MOL     -0.503823
     93 H37        -4.1050   -1.1480    1.1670 hn        1 MOL      0.495973
     94 H38        -3.1520   -3.9120    1.8900 h1        1 MOL      0.017112
     95 H39        -2.3440   -4.2370   -0.4220 hc        1 MOL     -0.014918
     96 H40        -3.2260   -2.9140   -0.9850 hc        1 MOL     -0.014918
     97 H41        -5.8750   -2.6930   -0.6670 ha        1 MOL      0.104134
     98 H42        -3.5760   -6.4300   -0.5830 ha        1 MOL      0.104134
     99 H43        -7.8240   -3.9320   -1.0550 ha        1 MOL      0.127975
    100 H44        -5.6140   -7.6360   -1.0680 ha        1 MOL      0.127975
    101 H45        -8.0070   -7.4710   -1.2860 ho        1 MOL      0.369001
    102 N10        -0.7230   -3.2000    1.6840 n         1 MOL     -0.534516
    103 C34         0.7280   -2.8990    1.7670 c3        1 MOL      0.105879
    104 C35         1.4530   -3.8740    0.7680 c         1 MOL      0.421020
    105 O15         1.4390   -5.0750    1.0450 o         1 MOL     -0.550513
    106 C36         1.3140   -2.9370    3.2150 c3        1 MOL      0.347434
    107 C37         0.5580   -2.0570    4.2170 c3        1 MOL      0.095423
    108 C38         2.7740   -2.4490    3.1760 c3        1 MOL     -0.593391
    109 C39         0.7490   -2.5890    5.6710 c3        1 MOL     -0.196064
    110 H46        -0.9580   -4.0780    2.1080 hn        1 MOL      0.294745
    111 H47         0.9150   -1.8990    1.3920 h1        1 MOL      0.062649
    112 H48         1.2270   -3.9710    3.5440 hc        1 MOL     -0.057082
    113 H49        -0.5090   -2.0650    3.9870 hc        1 MOL     -0.016132
    114 H50         0.8920   -1.0310    4.0730 hc        1 MOL     -0.016132
    115 H51         3.3390   -3.1880    2.5980 hc        1 MOL      0.130696
    116 H52         2.7930   -1.4310    2.8060 hc        1 MOL      0.130696
    117 H53         3.1530   -2.4780    4.1900 hc        1 MOL      0.130696
    118 H54         0.1480   -3.4920    5.7370 hc        1 MOL      0.043188
    119 H55         1.7950   -2.6990    5.9550 hc        1 MOL      0.043188
    120 H56         0.2910   -1.9100    6.3940 hc        1 MOL      0.043188
    121 N11         2.2620   -3.3650   -0.1720 n         1 MOL     -0.079838
    122 C40         3.0640   -4.0360   -1.1900 c3        1 MOL     -0.256468
    123 C41         4.5830   -3.7750   -0.9160 c         1 MOL      0.675914
    124 O16         4.9610   -2.9180   -0.0870 o         1 MOL     -0.511118
    125 C42         2.7060   -3.5170   -2.6190 c3        1 MOL      0.056952
    126 O17         2.7630   -2.1160   -2.6980 oh        1 MOL     -0.488432
    127 H57         2.0650   -2.3790   -0.2760 hn        1 MOL      0.257636
    128 H58         2.8570   -5.1030   -1.1770 h1        1 MOL      0.107279
    129 H59         1.7140   -3.8150   -2.9540 h1        1 MOL      0.064499
    130 H60         3.3890   -3.9660   -3.3340 h1        1 MOL      0.064499
    131 H61         2.2170   -1.7500   -2.0040 ho        1 MOL      0.174211
    132 N12         5.4630   -4.5650   -1.5220 n         1 MOL     -0.585860
    133 C43         6.8970   -4.6590   -1.0650 c3        1 MOL      0.230045
    134 C44         7.6680   -3.2640   -1.1630 c         1 MOL      0.413089
    135 O18         8.4670   -2.9880   -0.2320 o         1 MOL     -0.502540
    136 C45         7.5400   -5.8540   -1.7600 c3        1 MOL     -0.465958
    137 H62         5.2370   -5.0420   -2.3920 hn        1 MOL      0.318211
    138 H63         6.8850   -4.8410    0.0070 h1        1 MOL      0.076493
    139 H64         6.9060   -6.7320   -1.6890 hc        1 MOL      0.140801
    140 H65         7.7050   -5.5170   -2.7850 hc        1 MOL      0.140801
    141 H66         8.4260   -6.0840   -1.1690 hc        1 MOL      0.140801
    142 N13         7.3430   -2.3740   -2.1590 n         1 MOL     -0.347868
    143 C46         7.9590   -1.0430   -2.2840 c3        1 MOL      0.078573
    144 C47         7.3580   -0.0350   -1.2940 c         1 MOL      0.399901
    145 O19         8.0210    0.8630   -0.8120 o         1 MOL     -0.503473
    146 C48         7.8390   -0.5980   -3.7500 c3        1 MOL     -0.262301
    147 H67         6.6160   -2.5020   -2.8380 hn        1 MOL      0.265220
    148 H68         9.0300   -1.1250   -2.0650 h1        1 MOL      0.095621
    149 H69         6.7630   -0.4860   -3.8770 hc        1 MOL      0.074400
    150 H70         8.2240    0.4040   -3.9230 hc        1 MOL      0.074400
    151 H71         8.1590   -1.4100   -4.4120 hc        1 MOL      0.074400
    152 N14         6.0700   -0.1780   -0.9960 n         1 MOL     -0.167714
    153 C49         5.4530    0.6640    0.0160 c3        1 MOL     -0.045983
    154 C50         6.1350    0.3850    1.4160 c         1 MOL      0.473142
    155 O20         6.6260    1.2720    2.1060 o         1 MOL     -0.533622
    156 C51         4.0150    0.2580    0.1020 c3        1 MOL      0.039379
    157 C52         3.1200    0.7110   -1.0320 c3        1 MOL      0.121637
    158 C53         1.7040    0.3250   -0.7970 c         1 MOL      0.984990
    159 O21         0.8870    1.1250   -0.3020 o         1 MOL     -0.761854
    160 O22         1.3310   -0.8450   -0.9810 o         1 MOL     -0.761854
    161 H72         5.5700   -0.9850   -1.3300 hn        1 MOL      0.165172
    162 H73         5.5990    1.7100   -0.2520 h1        1 MOL      0.040198
    163 H74         3.6980    0.6170    1.0840 hc        1 MOL     -0.027407
    164 H75         3.9490   -0.8220    0.2050 hc        1 MOL     -0.027407
    165 H76         3.4320    0.3420   -2.0140 hc        1 MOL     -0.102615
    166 H77         3.1360    1.7880   -1.1680 hc        1 MOL     -0.102615
    167 N15         6.2790   -0.9080    1.8400 n         1 MOL     -0.124867
    168 C54         6.9700   -1.3320    3.0760 c3        1 MOL     -0.373627
    169 H78         8.0470   -1.2300    2.9430 h1        1 MOL      0.142071
    170 H79         6.6450   -0.7060    3.9080 h1        1 MOL      0.142071
    171 H80         6.7280   -2.3730    3.2900 h1        1 MOL      0.142071
    172 H81         6.0400   -1.5580    1.1030 hn        1 MOL      0.197751
    173 Ca1        -1.4870    0.3850   -1.2880 Ca        1 MOL      1.783474
    174 O23         0.3550    1.4650   -3.2520 oh        1 MOL     -0.868189
    175 H82         0.2650    1.4040   -4.2100 ho        1 MOL      0.415838
    176 H83         1.1420    1.9940   -3.1160 ho        1 MOL      0.415838
    177 O24        -0.9470   -2.1160   -2.1080 oh        1 MOL     -0.868189
    178 H84         0.0090   -2.0170   -2.0720 ho        1 MOL      0.415838
    179 H85        -1.0760   -2.9300   -2.6000 ho        1 MOL      0.415838
    180 O25        -2.4520    0.0230   -4.1580 oh        1 MOL     -0.868189
    181 H86        -3.1690   -0.5450   -4.4460 ho        1 MOL      0.415838
    182 H87        -2.7050    0.9010   -4.4560 ho        1 MOL      0.415838
@<TRIPOS>BOND
     1    1    2 1   
     2    1    4 1   
     3    1    5 1   
     4    1    6 1   
     5    2    3 2   
     6    2    7 1   
     7    7    8 1   
     8    7   15 1   
     9    8    9 1   
    10    8   11 1   
    11    8   16 1   
    12    9   10 2   
    13    9   19 1   
    14   11   12 1   
    15   11   17 1   
    16   11   18 1   
    17   12   13 1   
    18   12   14 1   
    19   19   20 1   
    20   19   28 1   
    21   20   21 1   
    22   20   23 1   
    23   20   29 1   
    24   21   22 2   
    25   21   41 1   
    26   23   24 1   
    27   23   30 1   
    28   23   31 1   
    29   24   25 1   
    30   24   32 1   
    31   24   33 1   
    32   25   26 1   
    33   25   34 1   
    34   25   35 1   
    35   26   27 1   
    36   26   36 1   
    37   26   37 1   
    38   27   38 1   
    39   27   39 1   
    40   27   40 1   
    41   41   42 1   
    42   41   49 1   
    43   42   43 1   
    44   42   45 1   
    45   42   50 1   
    46   43   44 2   
    47   43   53 1   
    48   45   46 1   
    49   45   51 1   
    50   45   52 1   
    51   46   47 1   
    52   46   48 1   
    53   53   54 1   
    54   53   57 1   
    55   54   55 1   
    56   54   58 1   
    57   54   59 1   
    58   55   56 2   
    59   55   60 1   
    60   60   61 1   
    61   60   68 1   
    62   61   62 1   
    63   61   64 1   
    64   61   69 1   
    65   62   63 2   
    66   62   74 1   
    67   64   65 1   
    68   64   70 1   
    69   64   71 1   
    70   65   66 1   
    71   65   67 2   
    72   66   72 1   
    73   66   73 1   
    74   74   75 1   
    75   74   78 1   
    76   75   76 1   
    77   75   79 1   
    78   75   80 1   
    79   76   77 2   
    80   76   81 1   
    81   81   82 1   
    82   81   93 1   
    83   82   83 1   
    84   82   85 1   
    85   82   94 1   
    86   83   84 2   
    87   83  102 1   
    88   85   86 1   
    89   85   95 1   
    90   85   96 1   
    91   86   87 ar  
    92   86   88 ar  
    93   87   89 ar  
    94   87   97 1   
    95   88   90 ar  
    96   88   98 1   
    97   89   91 ar  
    98   89   99 1   
    99   90   91 ar  
   100   90  100 1   
   101   91   92 1   
   102   92  101 1   
   103  102  103 1   
   104  102  110 1   
   105  103  104 1   
   106  103  106 1   
   107  103  111 1   
   108  104  105 2   
   109  104  121 1   
   110  106  107 1   
   111  106  108 1   
   112  106  112 1   
   113  107  109 1   
   114  107  113 1   
   115  107  114 1   
   116  108  115 1   
   117  108  116 1   
   118  108  117 1   
   119  109  118 1   
   120  109  119 1   
   121  109  120 1   
   122  121  122 1   
   123  121  127 1   
   124  122  123 1   
   125  122  125 1   
   126  122  128 1   
   127  123  124 2   
   128  123  132 1   
   129  125  126 1   
   130  125  129 1   
   131  125  130 1   
   132  126  131 1   
   133  132  133 1   
   134  132  137 1   
   135  133  134 1   
   136  133  136 1   
   137  133  138 1   
   138  134  135 2   
   139  134  142 1   
   140  136  139 1   
   141  136  140 1   
   142  136  141 1   
   143  142  143 1   
   144  142  147 1   
   145  143  144 1   
   146  143  146 1   
   147  143  148 1   
   148  144  145 2   
   149  144  152 1   
   150  146  149 1   
   151  146  150 1   
   152  146  151 1   
   153  152  153 1   
   154  152  161 1   
   155  153  154 1   
   156  153  156 1   
   157  153  162 1   
   158  154  155 2   
   159  154  167 1   
   160  156  157 1   
   161  156  163 1   
   162  156  164 1   
   163  157  158 1   
   164  157  165 1   
   165  157  166 1   
   166  158  159 1   
   167  158  160 1   
   168  167  168 1   
   169  167  172 1   
   170  168  169 1   
   171  168  170 1   
   172  168  171 1   
   173  174  175 1   
   174  174  176 1   
   175  177  178 1   
   176  177  179 1   
   177  180  181 1   
   178  180  182 1   
@<TRIPOS>SUBSTRUCTURE
     1 MOL         1 TEMP              0 ****  ****    0 ROOT
