@<TRIPOS>MOLECULE
MOL
  179   176     1     0     0
SMALL
resp


@<TRIPOS>ATOM
      1 C1          1.2420    3.7860    6.7740 c3        1 MOL     -0.401939
      2 C2          1.0460    3.4230    5.3290 c         1 MOL      0.715533
      3 O1          2.1080    3.4030    4.6780 o         1 MOL     -0.565570
      4 H1          0.2710    3.9260    7.2490 hc        1 MOL      0.103418
      5 H2          1.7820    2.9850    7.2810 hc        1 MOL      0.103418
      6 H3          1.8160    4.7100    6.8430 hc        1 MOL      0.103418
      7 N1         -0.1280    3.2230    4.7150 n         1 MOL     -0.539601
      8 C3         -0.2070    2.9330    3.3150 c3        1 MOL      0.052595
      9 C4         -0.2570    4.1730    2.3600 c         1 MOL      0.732077
     10 O2         -0.5140    5.1590    2.9210 o         1 MOL     -0.546266
     11 C5         -1.5410    2.1390    3.0270 c3        1 MOL     -0.195630
     12 C6         -1.5490    1.4930    1.6240 c         1 MOL      0.730676
     13 O3         -2.5810    1.3150    1.0200 o         1 MOL     -0.682158
     14 O4         -0.5100    1.1680    0.9760 o         1 MOL     -0.682158
     15 H4         -1.0020    3.4260    5.1970 hn        1 MOL      0.307821
     16 H5          0.5930    2.2550    3.0200 h1        1 MOL      0.020344
     17 H6         -2.3950    2.8150    3.0820 hc        1 MOL      0.054892
     18 H7         -1.6970    1.2980    3.7070 hc        1 MOL      0.054892
     19 N2          0.0060    3.9340    1.0400 n         1 MOL     -0.556533
     20 C7          0.1910    4.9070   -0.0220 c3        1 MOL     -0.056052
     21 C8         -1.0950    5.2500   -0.7380 c         1 MOL      0.511884
     22 O5         -1.2320    6.4240   -1.1820 o         1 MOL     -0.583191
     23 C9          1.3710    4.4720   -0.9120 c3        1 MOL      0.208160
     24 C10         1.7580    5.3070   -2.1590 c3        1 MOL     -0.251293
     25 C11         3.0230    4.7560   -2.7360 c3        1 MOL      0.020175
     26 C12         3.9750    5.7460   -3.4350 c3        1 MOL     -0.047882
     27 N3          3.2180    6.3590   -4.5290 n4        1 MOL     -0.247953
     28 H8          0.1210    2.9680    0.7940 hn        1 MOL      0.218871
     29 H9          0.5750    5.8180    0.4280 h1        1 MOL      0.088310
     30 H10         1.0930    3.5000   -1.3350 hc        1 MOL      0.023822
     31 H11         2.2760    4.3340   -0.3200 hc        1 MOL      0.023822
     32 H12         1.9550    6.3240   -1.8240 hc        1 MOL      0.056335
     33 H13         0.8960    5.4320   -2.8120 hc        1 MOL      0.056335
     34 H14         2.9280    3.8290   -3.2970 hc        1 MOL      0.053016
     35 H15         3.6010    4.3760   -1.8860 hc        1 MOL      0.053016
     36 H16         4.8250    5.1830   -3.8190 hx        1 MOL      0.106439
     37 H17         4.3540    6.4850   -2.7290 hx        1 MOL      0.106439
     38 H18         2.4970    5.7290   -4.8590 hn        1 MOL      0.299840
     39 H19         2.7210    7.1580   -4.1790 hn        1 MOL      0.299840
     40 H20         3.7430    6.7110   -5.3240 hn        1 MOL      0.299840
     41 N4         -2.0100    4.3050   -0.8590 n         1 MOL     -0.300216
     42 C13        -3.3140    4.4780   -1.5880 c3        1 MOL      0.039043
     43 C14        -4.5790    4.0350   -0.7810 c         1 MOL      0.452570
     44 O6         -5.6440    4.4280   -1.2100 o         1 MOL     -0.530845
     45 C15        -3.1230    3.8710   -3.0000 c3        1 MOL     -0.210598
     46 C16        -2.9020    2.4020   -3.1060 c         1 MOL      0.665384
     47 O7         -2.8850    1.7070   -2.0930 o         1 MOL     -0.687289
     48 O8         -2.4610    1.8860   -4.1780 o         1 MOL     -0.687289
     49 H21        -1.7380    3.3680   -0.6050 hn        1 MOL      0.259305
     50 H22        -3.4920    5.5330   -1.7850 h1        1 MOL      0.096829
     51 H23        -2.2070    4.3780   -3.2960 hc        1 MOL      0.070516
     52 H24        -3.9420    4.1140   -3.6760 hc        1 MOL      0.070516
     53 N5         -4.5180    3.3900    0.3610 n         1 MOL     -0.100344
     54 C17        -5.5660    3.0590    1.2580 c3        1 MOL     -0.227916
     55 C18        -6.6400    1.9830    0.8510 c         1 MOL      0.483776
     56 O9         -7.8340    2.1610    1.1790 o         1 MOL     -0.543715
     57 H25        -3.6060    3.1070    0.6740 hn        1 MOL      0.045852
     58 H26        -6.1020    4.0170    1.2980 h1        1 MOL      0.118236
     59 H27        -5.1690    2.7960    2.2350 h1        1 MOL      0.118236
     60 N6         -6.1600    0.8570    0.2430 n         1 MOL     -0.051317
     61 C19        -6.9740   -0.2170   -0.3500 c3        1 MOL     -0.181976
     62 C20        -7.0840   -1.5130    0.5050 c         1 MOL      0.348636
     63 O10        -7.4860   -2.5870    0.0140 o         1 MOL     -0.429538
     64 C21        -6.4370   -0.4480   -1.7680 c3        1 MOL     -0.030276
     65 C22        -4.9560   -0.7960   -1.8590 c         1 MOL      0.575724
     66 N7         -4.4860   -1.1590   -3.0320 n         1 MOL     -0.526934
     67 O11        -4.1970   -0.8440   -0.8630 o         1 MOL     -0.454042
     68 H28        -5.1730    0.8680   -0.0040 hn        1 MOL      0.025453
     69 H29        -7.9750    0.1930   -0.5130 h1        1 MOL      0.145278
     70 H30        -6.6190    0.4300   -2.3740 hc        1 MOL      0.046756
     71 H31        -6.9900   -1.2650   -2.2280 hc        1 MOL      0.046756
     72 H32        -5.1160   -1.1000   -3.8160 hn        1 MOL      0.272488
     73 H33        -3.4990   -1.3850   -3.1280 hn        1 MOL      0.272488
     74 N8         -6.5990   -1.4140    1.7550 n         1 MOL     -0.245770
     75 C23        -6.5190   -2.4850    2.7150 c3        1 MOL     -0.038615
     76 C24        -5.2940   -3.3790    2.7450 c         1 MOL      0.527947
     77 O12        -5.3770   -4.4840    3.2470 o         1 MOL     -0.553358
     78 H34        -6.2530   -0.4920    1.9750 hn        1 MOL      0.225768
     79 H35        -7.3430   -3.1950    2.6230 h1        1 MOL      0.067277
     80 H36        -6.6090   -1.9700    3.6790 h1        1 MOL      0.067277
     81 N9         -4.2470   -2.8970    2.1200 n         1 MOL     -0.279999
     82 C25        -2.9460   -3.6330    1.9400 c3        1 MOL      0.051533
     83 C26        -1.7610   -2.8470    1.4620 c         1 MOL      0.519123
     84 O13        -1.9200   -1.7940    0.8630 o         1 MOL     -0.550438
     85 C27        -3.0990   -4.8760    1.1320 c3        1 MOL     -0.148111
     86 C28        -3.3410   -4.8960   -0.3350 ca        1 MOL      0.128212
     87 C29        -2.4370   -5.4950   -1.2320 ca        1 MOL     -0.174339
     88 C30        -4.5070   -4.2950   -0.8490 ca        1 MOL     -0.174339
     89 C31        -2.7930   -5.6250   -2.5940 ca        1 MOL     -0.272745
     90 C32        -4.8300   -4.3700   -2.2410 ca        1 MOL     -0.272745
     91 C33        -3.9240   -4.9860   -3.1210 ca        1 MOL      0.360687
     92 O14        -4.1300   -5.0190   -4.4680 oh        1 MOL     -0.501227
     93 H37        -4.2330   -1.9170    1.8860 hn        1 MOL      0.210083
     94 H38        -2.6130   -3.9360    2.9370 h1        1 MOL      0.041726
     95 H39        -3.9790   -5.3630    1.5340 hc        1 MOL      0.077874
     96 H40        -2.3150   -5.5910    1.3890 hc        1 MOL      0.077874
     97 H41        -1.4590   -5.8710   -0.9650 ha        1 MOL      0.131869
     98 H42        -5.2830   -3.8790   -0.2340 ha        1 MOL      0.131869
     99 H43        -2.1140   -6.1350   -3.2600 ha        1 MOL      0.130279
    100 H44        -5.7820   -4.1210   -2.6800 ha        1 MOL      0.130279
    101 H45        -3.5790   -5.6430   -4.9560 ho        1 MOL      0.362656
    102 N10        -0.5080   -3.3280    1.7860 n         1 MOL     -0.534051
    103 C34         0.7740   -2.5630    1.5780 c3        1 MOL      0.076450
    104 C35         1.9390   -3.4800    1.1650 c         1 MOL      0.425843
    105 O15         2.1100   -4.5670    1.7180 o         1 MOL     -0.542163
    106 C36         1.0980   -1.8830    2.9330 c3        1 MOL      0.102584
    107 C37         2.2020   -0.8380    2.7780 c3        1 MOL      0.119548
    108 C38         1.3060   -2.7610    4.1520 c3        1 MOL     -0.403290
    109 C39         2.6660    0.0530    3.9000 c3        1 MOL     -0.055444
    110 H46        -0.4310   -4.0400    2.5010 hn        1 MOL      0.342639
    111 H47         0.6020   -1.7910    0.8280 h1        1 MOL      0.076301
    112 H48         0.2080   -1.3030    3.1610 hc        1 MOL      0.040961
    113 H49         1.7870   -0.1250    2.0610 hc        1 MOL     -0.062045
    114 H50         3.1250   -1.2950    2.4200 hc        1 MOL     -0.062045
    115 H51         0.4860   -3.4800    4.2100 hc        1 MOL      0.090656
    116 H52         2.1690   -3.4070    3.9660 hc        1 MOL      0.090656
    117 H53         1.3260   -2.1530    5.0570 hc        1 MOL      0.090656
    118 H54         3.3140   -0.4870    4.5980 hc        1 MOL      0.017358
    119 H55         3.2630    0.9040    3.5510 hc        1 MOL      0.017358
    120 H56         1.8680    0.5010    4.4800 hc        1 MOL      0.017358
    121 N11         2.7080   -3.1310    0.1460 n         1 MOL     -0.131082
    122 C40         3.7650   -3.8580   -0.5160 c3        1 MOL     -0.045315
    123 C41         5.1310   -3.4440    0.1930 c         1 MOL      0.469041
    124 O16         5.1940   -2.4750    0.9110 o         1 MOL     -0.389219
    125 C42         3.7860   -3.5260   -2.0370 c3        1 MOL     -0.108287
    126 O17         4.0780   -2.1780   -2.3290 oh        1 MOL     -0.411162
    127 H57         2.3860   -2.2430   -0.2070 hn        1 MOL      0.129951
    128 H58         3.6490   -4.9310   -0.3550 h1        1 MOL      0.086375
    129 H59         2.8130   -3.7760   -2.4780 h1        1 MOL      0.080676
    130 H60         4.4620   -4.2070   -2.5500 h1        1 MOL      0.080676
    131 H61         3.5940   -1.9880   -3.1330 ho        1 MOL      0.394078
    132 N12         6.2180   -4.1250   -0.1670 n         1 MOL     -0.436199
    133 C43         7.5100   -3.6040    0.3010 c3        1 MOL      0.122952
    134 C44         7.7710   -2.1730   -0.2530 c         1 MOL      0.527582
    135 O18         8.4060   -1.4260    0.4430 o         1 MOL     -0.490458
    136 C45         8.5370   -4.6190   -0.1350 c3        1 MOL     -0.466355
    137 H62         6.2210   -4.9550   -0.7420 hn        1 MOL      0.294062
    138 H63         7.3650   -3.4810    1.3700 h1        1 MOL      0.093222
    139 H64         9.5010   -4.1380    0.0510 hc        1 MOL      0.135963
    140 H65         8.3710   -5.5050    0.4680 hc        1 MOL      0.135963
    141 H66         8.5120   -4.9550   -1.1750 hc        1 MOL      0.135963
    142 N13         7.3740   -1.9170   -1.5170 n         1 MOL     -0.382696
    143 C46         7.6290   -0.6150   -2.0820 c3        1 MOL      0.158149
    144 C47         6.9230    0.4910   -1.3660 c         1 MOL      0.269343
    145 O19         7.4710    1.5900   -1.0830 o         1 MOL     -0.512154
    146 C48         7.2070   -0.6300   -3.5810 c3        1 MOL     -0.305410
    147 H67         6.9040   -2.6620   -1.9970 hn        1 MOL      0.244053
    148 H68         8.6970   -0.4680   -1.9680 h1        1 MOL      0.077471
    149 H69         7.3240    0.3450   -4.0580 hc        1 MOL      0.085774
    150 H70         7.8770   -1.3580   -4.0470 hc        1 MOL      0.085774
    151 H71         6.1590   -0.9250   -3.7030 hc        1 MOL      0.085774
    152 N14         5.6720    0.3110   -1.0690 n         1 MOL      0.060778
    153 C49         4.9680    1.2600   -0.2840 c3        1 MOL     -0.104163
    154 C50         5.5200    1.4370    1.1810 c         1 MOL      0.385604
    155 O20         5.3900    2.5120    1.8130 o         1 MOL     -0.533878
    156 C51         3.5030    0.7840   -0.1750 c3        1 MOL     -0.052951
    157 C52         2.8590    0.8920   -1.5590 c3        1 MOL      0.007727
    158 C53         1.3870    0.4090   -1.6560 c         1 MOL      0.597805
    159 O21         0.4940    1.2080   -1.9860 o         1 MOL     -0.677910
    160 O22         0.9740   -0.7630   -1.3990 o         1 MOL     -0.677910
    161 H72         5.2220   -0.5850   -1.1790 hn        1 MOL     -0.007723
    162 H73         4.9370    2.2180   -0.8070 h1        1 MOL      0.080525
    163 H74         2.9270    1.3480    0.5540 hc        1 MOL      0.088710
    164 H75         3.4350   -0.2730    0.0980 hc        1 MOL      0.088710
    165 H76         3.4360    0.2250   -2.2120 hc        1 MOL     -0.047139
    166 H77         3.0110    1.9020   -1.9340 hc        1 MOL     -0.047139
    167 N15         6.1870    0.4290    1.7390 n         1 MOL      0.044810
    168 C54         6.7530    0.4300    3.0710 c3        1 MOL     -0.219851
    169 H78         7.5810   -0.2790    3.1140 h1        1 MOL      0.093364
    170 H79         7.1180    1.4280    3.3110 h1        1 MOL      0.093364
    171 H80         5.9890    0.1390    3.7920 h1        1 MOL      0.093364
    172 H81         6.2350   -0.3330    1.0710 hn        1 MOL      0.027860
    173 Ca1        -1.5480   -0.1830   -1.1650 Ca        1 MOL      1.704778
    174 O23        -1.2660   -2.8250   -1.5690 oh        1 MOL     -0.877746
    175 H82        -0.4990   -3.0010   -2.1150 ho        1 MOL      0.405432
    176 H83        -1.9010   -3.4920   -1.8290 ho        1 MOL      0.405432
    177 O24        -1.9240   -0.6910   -3.9200 oh        1 MOL     -0.877746
    178 H84        -1.8920   -1.1400   -4.7570 ho        1 MOL      0.405432
    179 H85        -2.1800    0.2090   -4.1330 ho        1 MOL      0.405432
@<TRIPOS>BOND
     1    1    2 1   
     2    1    4 1   
     3    1    5 1   
     4    1    6 1   
     5    2    3 2   
     6    2    7 1   
     7    7    8 1   
     8    7   15 1   
     9    8    9 1   
    10    8   11 1   
    11    8   16 1   
    12    9   10 2   
    13    9   19 1   
    14   11   12 1   
    15   11   17 1   
    16   11   18 1   
    17   12   13 1   
    18   12   14 1   
    19   19   20 1   
    20   19   28 1   
    21   20   21 1   
    22   20   23 1   
    23   20   29 1   
    24   21   22 2   
    25   21   41 1   
    26   23   24 1   
    27   23   30 1   
    28   23   31 1   
    29   24   25 1   
    30   24   32 1   
    31   24   33 1   
    32   25   26 1   
    33   25   34 1   
    34   25   35 1   
    35   26   27 1   
    36   26   36 1   
    37   26   37 1   
    38   27   38 1   
    39   27   39 1   
    40   27   40 1   
    41   41   42 1   
    42   41   49 1   
    43   42   43 1   
    44   42   45 1   
    45   42   50 1   
    46   43   44 2   
    47   43   53 1   
    48   45   46 1   
    49   45   51 1   
    50   45   52 1   
    51   46   47 1   
    52   46   48 1   
    53   53   54 1   
    54   53   57 1   
    55   54   55 1   
    56   54   58 1   
    57   54   59 1   
    58   55   56 2   
    59   55   60 1   
    60   60   61 1   
    61   60   68 1   
    62   61   62 1   
    63   61   64 1   
    64   61   69 1   
    65   62   63 2   
    66   62   74 1   
    67   64   65 1   
    68   64   70 1   
    69   64   71 1   
    70   65   66 1   
    71   65   67 2   
    72   66   72 1   
    73   66   73 1   
    74   74   75 1   
    75   74   78 1   
    76   75   76 1   
    77   75   79 1   
    78   75   80 1   
    79   76   77 2   
    80   76   81 1   
    81   81   82 1   
    82   81   93 1   
    83   82   83 1   
    84   82   85 1   
    85   82   94 1   
    86   83   84 2   
    87   83  102 1   
    88   85   86 1   
    89   85   95 1   
    90   85   96 1   
    91   86   87 ar  
    92   86   88 ar  
    93   87   89 ar  
    94   87   97 1   
    95   88   90 ar  
    96   88   98 1   
    97   89   91 ar  
    98   89   99 1   
    99   90   91 ar  
   100   90  100 1   
   101   91   92 1   
   102   92  101 1   
   103  102  103 1   
   104  102  110 1   
   105  103  104 1   
   106  103  106 1   
   107  103  111 1   
   108  104  105 2   
   109  104  121 1   
   110  106  107 1   
   111  106  108 1   
   112  106  112 1   
   113  107  109 1   
   114  107  113 1   
   115  107  114 1   
   116  108  115 1   
   117  108  116 1   
   118  108  117 1   
   119  109  118 1   
   120  109  119 1   
   121  109  120 1   
   122  121  122 1   
   123  121  127 1   
   124  122  123 1   
   125  122  125 1   
   126  122  128 1   
   127  123  124 2   
   128  123  132 1   
   129  125  126 1   
   130  125  129 1   
   131  125  130 1   
   132  126  131 1   
   133  132  133 1   
   134  132  137 1   
   135  133  134 1   
   136  133  136 1   
   137  133  138 1   
   138  134  135 2   
   139  134  142 1   
   140  136  139 1   
   141  136  140 1   
   142  136  141 1   
   143  142  143 1   
   144  142  147 1   
   145  143  144 1   
   146  143  146 1   
   147  143  148 1   
   148  144  145 2   
   149  144  152 1   
   150  146  149 1   
   151  146  150 1   
   152  146  151 1   
   153  152  153 1   
   154  152  161 1   
   155  153  154 1   
   156  153  156 1   
   157  153  162 1   
   158  154  155 2   
   159  154  167 1   
   160  156  157 1   
   161  156  163 1   
   162  156  164 1   
   163  157  158 1   
   164  157  165 1   
   165  157  166 1   
   166  158  159 1   
   167  158  160 1   
   168  167  168 1   
   169  167  172 1   
   170  168  169 1   
   171  168  170 1   
   172  168  171 1   
   173  174  175 1   
   174  174  176 1   
   175  177  178 1   
   176  177  179 1   
@<TRIPOS>SUBSTRUCTURE
     1 MOL         1 TEMP              0 ****  ****    0 ROOT
