@<TRIPOS>MOLECULE
MOL
  175   173     1     0     0
SMALL
resp


@<TRIPOS>ATOM
      1 C1          0.0730    5.0520    5.2700 c3        1 MOL     -0.410888
      2 C2         -0.3410    4.6320    3.8490 c         1 MOL      0.750894
      3 O1          0.4710    4.2520    3.0320 o         1 MOL     -0.601727
      4 H1         -0.4900    5.9380    5.5650 hc        1 MOL      0.095854
      5 H2         -0.1390    4.2400    5.9660 hc        1 MOL      0.095854
      6 H3          1.1390    5.2770    5.2860 hc        1 MOL      0.095854
      7 N1         -1.6350    4.5230    3.6650 n         1 MOL     -0.642836
      8 C3         -2.2260    3.8040    2.5200 c3        1 MOL      0.395236
      9 C4         -2.5530    4.8110    1.3550 c         1 MOL      0.332245
     10 O2         -3.0710    5.9080    1.6820 o         1 MOL     -0.557319
     11 C5         -3.4820    2.9940    2.9040 c3        1 MOL     -0.408341
     12 C6         -3.9810    2.0750    1.7950 c         1 MOL      0.733209
     13 O3         -5.2320    1.8030    1.8110 o         1 MOL     -0.691770
     14 O4         -3.2400    1.7280    0.8740 o         1 MOL     -0.691770
     15 H4         -2.1710    4.8810    4.4320 hn        1 MOL      0.313423
     16 H5         -1.4670    3.1390    2.1090 h1        1 MOL      0.005869
     17 H6         -4.2000    3.7810    3.1480 hc        1 MOL      0.081850
     18 H7         -3.1130    2.4770    3.7990 hc        1 MOL      0.081850
     19 N2         -2.1070    4.5430    0.1010 n         1 MOL     -0.072373
     20 C7         -2.2690    5.4270   -1.0340 c3        1 MOL      0.015109
     21 C8         -3.4160    4.9220   -1.9820 c         1 MOL      0.525169
     22 O5         -3.6820    5.5780   -3.0130 o         1 MOL     -0.571718
     23 C9         -0.8660    5.4890   -1.7300 c3        1 MOL     -0.220955
     24 H8         -1.6150    3.6750    0.0100 hn        1 MOL      0.134911
     25 H9         -2.5410    6.4050   -0.6460 h1        1 MOL      0.055692
     26 H10        -0.0800    5.6460   -0.9940 hc        1 MOL      0.072314
     27 H11        -0.6670    4.5480   -2.2350 hc        1 MOL      0.072314
     28 H12        -0.6710    6.1280   -2.5990 hc        1 MOL      0.072314
     29 N3         -4.0660    3.7670   -1.7600 n         1 MOL     -0.557136
     30 C10        -4.8270    3.1420   -2.8460 c3        1 MOL      0.228240
     31 C11        -6.1260    2.4600   -2.4620 c         1 MOL      0.344842
     32 O6         -6.8920    2.1300   -3.3560 o         1 MOL     -0.550762
     33 C12        -3.8520    2.2190   -3.6800 c3        1 MOL     -0.257693
     34 C13        -3.1820    1.1670   -2.8020 c         1 MOL      0.872718
     35 O7         -3.8110    0.7930   -1.8270 o         1 MOL     -0.761392
     36 O8         -2.0570    0.7460   -3.0030 o         1 MOL     -0.761392
     37 H13        -3.8380    3.2740   -0.9060 hn        1 MOL      0.310404
     38 H14        -5.1080    3.9090   -3.5660 h1        1 MOL      0.073057
     39 H15        -3.1350    2.9100   -4.1230 hc        1 MOL      0.055426
     40 H16        -4.4020    1.6960   -4.4610 hc        1 MOL      0.055426
     41 N4         -6.3900    2.1390   -1.2030 n         1 MOL     -0.200894
     42 C14        -7.5550    1.3710   -0.7650 c3        1 MOL     -0.275624
     43 C15        -7.6370   -0.1560   -1.0730 c         1 MOL      0.537797
     44 O9         -8.6950   -0.7800   -0.7630 o         1 MOL     -0.606137
     45 H17        -5.7260    2.5410   -0.5680 hn        1 MOL      0.204619
     46 H18        -8.5290    1.7800   -1.0230 h1        1 MOL      0.134376
     47 H19        -7.5050    1.4750    0.3190 h1        1 MOL      0.134376
     48 N5         -6.5430   -0.6880   -1.6060 n         1 MOL     -0.310980
     49 C16        -6.3340   -2.1020   -2.0720 c3        1 MOL     -0.060344
     50 C17        -6.1750   -3.1400   -0.9440 c         1 MOL      0.335898
     51 O10        -5.9840   -4.3230   -1.3690 o         1 MOL     -0.491393
     52 C18        -5.1490   -2.2150   -3.0170 c3        1 MOL      0.008043
     53 C19        -3.7480   -2.5020   -2.4740 c         1 MOL      0.552315
     54 N6         -2.8670   -2.9300   -3.2740 n         1 MOL     -0.553738
     55 O11        -3.3880   -2.3280   -1.3020 o         1 MOL     -0.619447
     56 H20        -5.7130   -0.1130   -1.7090 hn        1 MOL      0.310201
     57 H21        -7.2320   -2.2660   -2.6610 h1        1 MOL      0.127531
     58 H22        -5.0460   -1.3740   -3.6970 hc        1 MOL      0.015325
     59 H23        -5.4660   -3.0050   -3.6950 hc        1 MOL      0.015325
     60 H24        -3.0410   -3.1320   -4.2500 hn        1 MOL      0.306369
     61 H25        -1.9190   -2.9710   -2.9180 hn        1 MOL      0.306369
     62 N7         -6.1770   -2.7630    0.3710 n         1 MOL     -0.138793
     63 C20        -6.3380   -3.6350    1.5770 c3        1 MOL     -0.153250
     64 C21        -5.0470   -4.1530    2.1550 c         1 MOL      0.512806
     65 O12        -5.1500   -5.0610    2.9220 o         1 MOL     -0.564310
     66 H26        -6.3300   -1.7800    0.5500 hn        1 MOL      0.217131
     67 H27        -7.0170   -4.4360    1.2700 h1        1 MOL      0.106252
     68 H28        -6.9020   -3.0900    2.3280 h1        1 MOL      0.106252
     69 N8         -3.8450   -3.7880    1.6010 n         1 MOL     -0.096010
     70 C22        -2.5490   -4.4130    1.7730 c3        1 MOL     -0.252869
     71 C23        -1.4380   -3.4540    1.5650 c         1 MOL      0.710746
     72 O13        -1.4430   -2.4640    0.8580 o         1 MOL     -0.555064
     73 C24        -2.3050   -5.5520    0.7450 c3        1 MOL      0.579202
     74 C25        -3.0770   -6.8620    1.0340 c3        1 MOL     -0.784861
     75 O14        -2.7560   -5.2050   -0.5280 oh        1 MOL     -0.609116
     76 H29        -3.8440   -2.9370    1.0550 hn        1 MOL     -0.039519
     77 H30        -2.4440   -4.9220    2.7350 h1        1 MOL      0.095958
     78 H31        -1.2250   -5.6430    0.7170 h1        1 MOL     -0.055523
     79 H32        -2.7930   -4.2450   -0.5870 ho        1 MOL      0.388826
     80 H33        -3.0990   -7.4510    0.1110 hc        1 MOL      0.204349
     81 H34        -2.6830   -7.2670    1.9640 hc        1 MOL      0.204349
     82 H35        -4.1490   -6.7200    1.1500 hc        1 MOL      0.204349
     83 N9         -0.3270   -3.7840    2.2250 n         1 MOL     -0.568316
     84 C26         0.8730   -2.9470    2.1660 c3        1 MOL      0.143194
     85 C27         1.6770   -3.2210    0.9320 c         1 MOL      0.595859
     86 O15         1.8670   -4.3790    0.5300 o         1 MOL     -0.602398
     87 C28         1.6580   -2.8780    3.4900 c3        1 MOL      0.006423
     88 C29         0.9670   -1.9370    4.4630 c3        1 MOL     -0.090544
     89 C30         3.1350   -2.4910    3.4810 c3        1 MOL     -0.313297
     90 C31         1.1510   -0.4250    4.3280 c3        1 MOL     -0.011206
     91 H36        -0.1890   -4.6210    2.7790 hn        1 MOL      0.289131
     92 H37         0.5890   -1.9000    2.0530 h1        1 MOL     -0.005947
     93 H38         1.6710   -3.8950    3.8880 hc        1 MOL      0.035930
     94 H39         1.3360   -2.1900    5.4570 hc        1 MOL      0.012418
     95 H40        -0.1050   -2.1370    4.4870 hc        1 MOL      0.012418
     96 H41         3.7630   -3.2950    3.0830 hc        1 MOL      0.075152
     97 H42         3.3020   -1.5630    2.9330 hc        1 MOL      0.075152
     98 H43         3.4460   -2.1830    4.4840 hc        1 MOL      0.075152
     99 H44         2.1930   -0.1300    4.4270 hc        1 MOL      0.015745
    100 H45         0.7290    0.0230    3.4300 hc        1 MOL      0.015745
    101 H46         0.6140    0.0720    5.1350 hc        1 MOL      0.015745
    102 N10         2.0680   -2.2010    0.1290 n         1 MOL     -0.343471
    103 C32         2.8460   -2.2310   -1.1040 c3        1 MOL      0.144382
    104 C33         4.2750   -1.7540   -0.8390 c         1 MOL      0.225869
    105 O16         4.3480   -0.8520    0.0080 o         1 MOL     -0.239300
    106 C34         2.2390   -1.3720   -2.2140 c3        1 MOL     -0.247078
    107 C35         0.7730   -1.6960   -2.3760 c         1 MOL      0.741606
    108 O17         0.4180   -2.3160   -3.4620 o         1 MOL     -0.696364
    109 O18         0.0160   -1.3110   -1.5070 o         1 MOL     -0.696364
    110 H47         1.8690   -1.2370    0.3950 hn        1 MOL      0.238173
    111 H48         3.0170   -3.2060   -1.5690 h1        1 MOL      0.055888
    112 H49         2.6880   -1.7080   -3.1450 hc        1 MOL      0.051848
    113 H50         2.3990   -0.2970   -2.1270 hc        1 MOL      0.051848
    114 N11         5.3580   -2.1550   -1.5040 n         1 MOL     -0.392578
    115 C36         6.7710   -1.5770   -1.2430 c3        1 MOL      0.092190
    116 C37         6.8910   -0.0590   -0.9900 c         1 MOL      0.606673
    117 O19         7.5180    0.3320   -0.0140 o         1 MOL     -0.533884
    118 C38         7.7680   -1.8460   -2.4460 c3        1 MOL     -0.305565
    119 C39         9.1600   -1.6490   -1.9850 ca        1 MOL      0.198769
    120 C40         9.8090   -0.4470   -2.2450 ca        1 MOL     -0.247208
    121 C41         9.8840   -2.6910   -1.3690 ca        1 MOL     -0.247208
    122 C42        11.1570   -0.1960   -1.8730 ca        1 MOL     -0.042985
    123 C43        11.2070   -2.4100   -0.9460 ca        1 MOL     -0.042985
    124 C44        11.8520   -1.2680   -1.2300 ca        1 MOL     -0.162302
    125 H51         5.3930   -2.9390   -2.1420 hn        1 MOL      0.298100
    126 H52         7.2160   -2.1170   -0.4070 h1        1 MOL      0.077604
    127 H53         7.6220   -1.2360   -3.3330 hc        1 MOL      0.099308
    128 H54         7.6520   -2.8860   -2.7700 hc        1 MOL      0.099308
    129 H55         9.3230    0.3060   -2.8550 ha        1 MOL      0.132124
    130 H56         9.4730   -3.6830   -1.3400 ha        1 MOL      0.132124
    131 H57        11.5530    0.8030   -1.9720 ha        1 MOL      0.098123
    132 H58        11.7480   -3.2640   -0.5710 ha        1 MOL      0.098123
    133 H59        12.9100   -1.1760   -1.0220 ha        1 MOL      0.103069
    134 N12         6.2210    0.8330   -1.7640 n         1 MOL     -0.168673
    135 C45         6.3510    2.3010   -1.6170 c3        1 MOL     -0.287904
    136 C46         5.5790    2.8280   -0.3220 c         1 MOL      0.466091
    137 O20         5.7070    3.9960    0.1050 o         1 MOL     -0.540241
    138 C47         5.5620    2.8800   -2.7960 c3        1 MOL      0.111019
    139 C48         4.5570    1.8340   -3.2770 c3        1 MOL     -0.090884
    140 C49         5.4300    0.6100   -2.9740 c3        1 MOL      0.087341
    141 H60         7.4190    2.5380   -1.6370 h1        1 MOL      0.154050
    142 H61         5.1400    3.8540   -2.5610 hc        1 MOL      0.005055
    143 H62         6.2010    3.1230   -3.6390 hc        1 MOL      0.005055
    144 H63         3.6630    1.9110   -2.6660 hc        1 MOL      0.058233
    145 H64         4.4880    1.9410   -4.3550 hc        1 MOL      0.058233
    146 H65         4.6950   -0.1770   -2.8170 h1        1 MOL     -0.003373
    147 H66         6.0090    0.2750   -3.8390 h1        1 MOL     -0.003373
    148 N13         4.8080    1.9450    0.3670 n         1 MOL     -0.162824
    149 C50         4.0940    2.2810    1.6330 c3        1 MOL     -0.024462
    150 C51         4.6870    1.5940    2.8400 c         1 MOL      0.329069
    151 O21         4.6980    2.0800    4.0050 o         1 MOL     -0.549411
    152 C52         2.6680    1.7190    1.4390 c3        1 MOL      0.151648
    153 C53         1.8670    2.4490    0.3810 c3        1 MOL     -0.089719
    154 C54         0.4540    1.8100    0.1550 c         1 MOL      0.561773
    155 O22        -0.2830    2.2110   -0.7720 o         1 MOL     -0.644317
    156 O23         0.0080    0.9260    0.9930 o         1 MOL     -0.644317
    157 H67         4.7440    0.9840    0.0400 hn        1 MOL      0.125823
    158 H68         4.1090    3.3400    1.9070 h1        1 MOL      0.120409
    159 H69         2.1320    1.8940    2.3700 hc        1 MOL     -0.030362
    160 H70         2.7140    0.6740    1.1490 hc        1 MOL     -0.030362
    161 H71         2.4130    2.5060   -0.5660 hc        1 MOL      0.031210
    162 H72         1.7830    3.5000    0.6790 hc        1 MOL      0.031210
    163 N14         5.3740    0.4600    2.5530 n         1 MOL      0.163559
    164 C55         6.2870   -0.2210    3.4400 c3        1 MOL     -0.279310
    165 H73         6.0350    0.0170    4.4730 h1        1 MOL      0.090790
    166 H74         6.2100   -1.2970    3.2860 h1        1 MOL      0.090790
    167 H75         7.3060    0.1040    3.2320 h1        1 MOL      0.090790
    168 H76         5.3210    0.2410    1.5720 hn        1 MOL     -0.102467
    169 Ca1        -1.8870   -0.1230   -0.2790 Ca        1 MOL      1.714304
    170 O24        -4.1830   -0.7880    1.2490 oh        1 MOL     -0.703911
    171 H77        -4.5190    0.1070    1.1910 ho        1 MOL      0.356569
    172 H78        -3.7520   -0.8240    2.1000 ho        1 MOL      0.356569
    173 O25        -1.5970   -0.1900    2.7980 oh        1 MOL     -0.703911
    174 H79        -1.8400    0.2240    3.6300 ho        1 MOL      0.356569
    175 H80        -0.7510    0.1970    2.5710 ho        1 MOL      0.356569
@<TRIPOS>BOND
     1    1    2 1   
     2    1    4 1   
     3    1    5 1   
     4    1    6 1   
     5    2    3 2   
     6    2    7 1   
     7    7    8 1   
     8    7   15 1   
     9    8    9 1   
    10    8   11 1   
    11    8   16 1   
    12    9   10 2   
    13    9   19 1   
    14   11   12 1   
    15   11   17 1   
    16   11   18 1   
    17   12   13 1   
    18   12   14 1   
    19   19   20 1   
    20   19   24 1   
    21   20   21 1   
    22   20   23 1   
    23   20   25 1   
    24   21   22 2   
    25   21   29 1   
    26   23   26 1   
    27   23   27 1   
    28   23   28 1   
    29   29   30 1   
    30   29   37 1   
    31   30   31 1   
    32   30   33 1   
    33   30   38 1   
    34   31   32 2   
    35   31   41 1   
    36   33   34 1   
    37   33   39 1   
    38   33   40 1   
    39   34   35 1   
    40   34   36 1   
    41   41   42 1   
    42   41   45 1   
    43   42   43 1   
    44   42   46 1   
    45   42   47 1   
    46   43   44 2   
    47   43   48 1   
    48   48   49 1   
    49   48   56 1   
    50   49   50 1   
    51   49   52 1   
    52   49   57 1   
    53   50   51 2   
    54   50   62 1   
    55   52   53 1   
    56   52   58 1   
    57   52   59 1   
    58   53   54 1   
    59   53   55 2   
    60   54   60 1   
    61   54   61 1   
    62   62   63 1   
    63   62   66 1   
    64   63   64 1   
    65   63   67 1   
    66   63   68 1   
    67   64   65 2   
    68   64   69 1   
    69   69   70 1   
    70   69   76 1   
    71   70   71 1   
    72   70   73 1   
    73   70   77 1   
    74   71   72 2   
    75   71   83 1   
    76   73   74 1   
    77   73   75 1   
    78   73   78 1   
    79   74   80 1   
    80   74   81 1   
    81   74   82 1   
    82   75   79 1   
    83   83   84 1   
    84   83   91 1   
    85   84   85 1   
    86   84   87 1   
    87   84   92 1   
    88   85   86 2   
    89   85  102 1   
    90   87   88 1   
    91   87   89 1   
    92   87   93 1   
    93   88   90 1   
    94   88   94 1   
    95   88   95 1   
    96   89   96 1   
    97   89   97 1   
    98   89   98 1   
    99   90   99 1   
   100   90  100 1   
   101   90  101 1   
   102  102  103 1   
   103  102  110 1   
   104  103  104 1   
   105  103  106 1   
   106  103  111 1   
   107  104  105 2   
   108  104  114 1   
   109  106  107 1   
   110  106  112 1   
   111  106  113 1   
   112  107  108 1   
   113  107  109 1   
   114  114  115 1   
   115  114  125 1   
   116  115  116 1   
   117  115  118 1   
   118  115  126 1   
   119  116  117 2   
   120  116  134 1   
   121  118  119 1   
   122  118  127 1   
   123  118  128 1   
   124  119  120 ar  
   125  119  121 ar  
   126  120  122 ar  
   127  120  129 1   
   128  121  123 ar  
   129  121  130 1   
   130  122  124 ar  
   131  122  131 1   
   132  123  124 ar  
   133  123  132 1   
   134  124  133 1   
   135  134  135 1   
   136  134  140 1   
   137  135  136 1   
   138  135  138 1   
   139  135  141 1   
   140  136  137 2   
   141  136  148 1   
   142  138  139 1   
   143  138  142 1   
   144  138  143 1   
   145  139  140 1   
   146  139  144 1   
   147  139  145 1   
   148  140  146 1   
   149  140  147 1   
   150  148  149 1   
   151  148  157 1   
   152  149  150 1   
   153  149  152 1   
   154  149  158 1   
   155  150  151 2   
   156  150  163 1   
   157  152  153 1   
   158  152  159 1   
   159  152  160 1   
   160  153  154 1   
   161  153  161 1   
   162  153  162 1   
   163  154  155 1   
   164  154  156 1   
   165  163  164 1   
   166  163  168 1   
   167  164  165 1   
   168  164  166 1   
   169  164  167 1   
   170  170  171 1   
   171  170  172 1   
   172  173  174 1   
   173  173  175 1   
@<TRIPOS>SUBSTRUCTURE
     1 MOL         1 TEMP              0 ****  ****    0 ROOT
