@<TRIPOS>MOLECULE
MOL
  189   185     1     0     0
SMALL
resp


@<TRIPOS>ATOM
      1 C1          0.0630    1.3650    5.9540 c3        1 MOL     -0.212391
      2 C2         -0.5160    1.6280    4.5750 c         1 MOL      0.664120
      3 O1          0.0630    2.4360    3.8150 o         1 MOL     -0.614143
      4 H1          0.0910    0.2910    6.1370 hc        1 MOL      0.053573
      5 H2          1.0740    1.7680    6.0080 hc        1 MOL      0.053573
      6 H3         -0.5600    1.8450    6.7090 hc        1 MOL      0.053573
      7 N1         -1.7170    1.1560    4.3250 n         1 MOL     -0.521370
      8 C3         -2.4750    1.1560    3.0220 c3        1 MOL      0.176752
      9 C4         -3.1160    2.5500    2.7120 c         1 MOL      0.398704
     10 O2         -4.2690    2.8020    3.0130 o         1 MOL     -0.518824
     11 C5         -3.5060    0.0310    2.9400 c3        1 MOL     -0.366885
     12 C6         -4.1780   -0.0430    1.5920 c         1 MOL      0.701595
     13 O3         -5.2250   -0.6820    1.6030 o         1 MOL     -0.624016
     14 O4         -3.6770    0.5040    0.5970 o         1 MOL     -0.624016
     15 H4         -2.1590    0.6660    5.0920 hn        1 MOL      0.291743
     16 H5         -1.6970    0.9930    2.2710 h1        1 MOL      0.050573
     17 H6         -4.2490    0.1920    3.7150 hc        1 MOL      0.105156
     18 H7         -2.9820   -0.9110    3.1460 hc        1 MOL      0.105156
     19 N2         -2.3620    3.3730    2.0240 n         1 MOL     -0.146223
     20 C7         -2.5870    4.8280    1.6330 c3        1 MOL     -0.012366
     21 C8         -3.5470    5.1090    0.4400 c         1 MOL      0.419621
     22 O5         -4.2990    6.0470    0.4730 o         1 MOL     -0.544275
     23 C9         -1.2410    5.4800    1.4940 c3        1 MOL     -0.085723
     24 C10        -0.9550    6.1250    0.0910 c3        1 MOL      0.341511
     25 C11         0.4360    6.8390    0.0700 c3        1 MOL     -0.232364
     26 C12         0.7690    7.3430   -1.3250 c3        1 MOL      0.249305
     27 N3          1.2380    8.7950   -1.3010 n4        1 MOL     -0.435382
     28 H8         -1.4350    2.9910    1.8800 hn        1 MOL      0.143576
     29 H9         -3.0700    5.2830    2.4880 h1        1 MOL      0.089493
     30 H10        -0.3630    4.9430    1.8600 hc        1 MOL      0.036347
     31 H11        -1.2060    6.3040    2.2030 hc        1 MOL      0.036347
     32 H12        -1.7470    6.8550   -0.0680 hc        1 MOL     -0.071120
     33 H13        -0.9430    5.3140   -0.6350 hc        1 MOL     -0.071120
     34 H14         1.1950    6.1170    0.3560 hc        1 MOL      0.049815
     35 H15         0.2950    7.7070    0.7140 hc        1 MOL      0.049815
     36 H16        -0.1050    7.2100   -1.9720 hx        1 MOL      0.040497
     37 H17         1.5610    6.8040   -1.8540 hx        1 MOL      0.040497
     38 H18         0.5950    9.4330   -0.8470 hn        1 MOL      0.330169
     39 H19         2.0120    8.8670   -0.6630 hn        1 MOL      0.330169
     40 H20         1.5360    9.2100   -2.1690 hn        1 MOL      0.330169
     41 N4         -3.6140    4.1780   -0.4520 n         1 MOL     -0.260857
     42 C13        -4.5190    4.1690   -1.5910 c3        1 MOL     -0.099792
     43 C14        -5.7770    3.2740   -1.3950 c         1 MOL      0.469399
     44 O6         -6.7150    3.3750   -2.1960 o         1 MOL     -0.569627
     45 C15        -3.7890    3.8130   -2.9300 c3        1 MOL     -0.182480
     46 C16        -2.7790    2.6740   -2.9460 c         1 MOL      0.750622
     47 O7         -2.8360    1.8370   -1.9800 o         1 MOL     -0.695653
     48 O8         -1.9020    2.7330   -3.8000 o         1 MOL     -0.695653
     49 H21        -3.0800    3.3300   -0.3070 hn        1 MOL      0.218755
     50 H22        -4.8660    5.1910   -1.7590 h1        1 MOL      0.131335
     51 H23        -3.3150    4.7580   -3.2000 hc        1 MOL      0.048697
     52 H24        -4.4990    3.6420   -3.7430 hc        1 MOL      0.048697
     53 N5         -5.9060    2.4890   -0.3600 n         1 MOL     -0.065067
     54 C17        -7.0240    1.7530    0.1440 c3        1 MOL     -0.284971
     55 C18        -7.3400    0.5350   -0.6900 c         1 MOL      0.592217
     56 O9         -8.5460    0.2350   -0.7390 o         1 MOL     -0.577559
     57 H25        -5.0250    2.4330    0.1460 hn        1 MOL      0.137487
     58 H26        -7.8540    2.4560    0.2230 h1        1 MOL      0.138604
     59 H27        -6.7820    1.3750    1.1430 h1        1 MOL      0.138604
     60 N6         -6.4000   -0.1840   -1.2410 n         1 MOL     -0.213404
     61 C19        -6.6480   -1.3320   -2.1130 c3        1 MOL     -0.040246
     62 C20        -6.7520   -2.6730   -1.3910 c         1 MOL      0.392979
     63 O10        -7.3020   -3.5720   -2.0020 o         1 MOL     -0.539253
     64 C21        -5.6720   -1.4160   -3.3240 c3        1 MOL     -0.111336
     65 C22        -4.2530   -1.4460   -2.8720 c         1 MOL      0.771053
     66 O11        -3.9490   -2.1240   -1.8760 o         1 MOL     -0.734226
     67 O12        -3.4110   -0.6860   -3.4020 o         1 MOL     -0.734226
     68 H28        -5.4330   -0.0350   -0.9870 hn        1 MOL      0.064388
     69 H29        -7.6180   -1.2200   -2.5970 h1        1 MOL      0.113197
     70 H30        -5.7310   -0.5170   -3.9390 hc        1 MOL      0.047757
     71 H31        -5.8450   -2.2100   -4.0560 hc        1 MOL      0.047757
     72 N7         -6.3990   -2.8000   -0.1270 n         1 MOL     -0.102102
     73 C23        -6.4020   -4.0390    0.6360 c3        1 MOL     -0.252972
     74 C24        -5.0840   -4.8020    0.5440 c         1 MOL      0.576763
     75 O13        -5.0110   -5.9410    1.0860 o         1 MOL     -0.595351
     76 H32        -6.1770   -1.9870    0.4080 hn        1 MOL      0.207768
     77 H33        -7.2290   -4.6450    0.2670 h1        1 MOL      0.111900
     78 H34        -6.5790   -3.7050    1.6650 h1        1 MOL      0.111900
     79 N8         -4.0890   -4.2920   -0.1530 n         1 MOL     -0.150857
     80 C25        -2.7020   -4.7200   -0.0690 c3        1 MOL     -0.295401
     81 C26        -1.7820   -3.6630    0.5440 c         1 MOL      0.875528
     82 O14        -2.1540   -2.4490    0.4520 o         1 MOL     -0.735352
     83 C27        -2.2110   -5.4110   -1.3390 c3        1 MOL      0.490270
     84 C28        -2.8410   -6.7440   -1.5560 c3        1 MOL     -0.456772
     85 O15        -2.6480   -4.6080   -2.4810 oh        1 MOL     -0.641829
     86 H35        -4.2990   -3.4690   -0.6840 hn        1 MOL      0.167644
     87 H36        -2.7350   -5.4850    0.7070 h1        1 MOL      0.077016
     88 H37        -1.1260   -5.4410   -1.2420 h1        1 MOL     -0.031527
     89 H38        -2.9700   -3.7630   -2.1410 ho        1 MOL      0.428674
     90 H39        -2.3230   -7.1180   -2.4460 hc        1 MOL      0.117107
     91 H40        -2.6000   -7.4130   -0.7250 hc        1 MOL      0.117107
     92 H41        -3.9110   -6.6820   -1.6730 hc        1 MOL      0.117107
     93 N9         -0.6770   -4.0310    1.1150 n         1 MOL     -0.672534
     94 C29         0.4850   -3.1940    1.5130 c3        1 MOL      0.034000
     95 C30         1.6580   -3.5620    0.5970 c         1 MOL      0.484334
     96 O16         2.0050   -4.7630    0.5070 o         1 MOL     -0.544469
     97 C31         0.8920   -3.3540    3.0540 c3        1 MOL      0.200049
     98 C32        -0.2260   -2.9870    4.0180 c3        1 MOL      0.053623
     99 C33         2.1390   -2.5040    3.3830 c3        1 MOL     -0.204076
    100 C34        -0.0310   -3.4890    5.4540 c3        1 MOL     -0.207365
    101 H42        -0.6130   -5.0350    1.1990 hn        1 MOL      0.321708
    102 H43         0.2450   -2.1610    1.2660 h1        1 MOL      0.123657
    103 H44         1.2100   -4.3780    3.2090 hc        1 MOL     -0.010395
    104 H45        -1.1710   -3.4050    3.6600 hc        1 MOL     -0.005559
    105 H46        -0.3310   -1.9070    3.9150 hc        1 MOL     -0.005559
    106 H47         3.0030   -2.8040    2.7960 hc        1 MOL      0.024912
    107 H48         1.8910   -1.4860    3.0850 hc        1 MOL      0.024912
    108 H49         2.2560   -2.4310    4.4640 hc        1 MOL      0.024912
    109 H50        -0.0580   -4.5710    5.5600 hc        1 MOL      0.053967
    110 H51         0.9840   -3.2460    5.7710 hc        1 MOL      0.053967
    111 H52        -0.7980   -3.0990    6.1290 hc        1 MOL      0.053967
    112 N10         2.3020   -2.5880   -0.1060 n         1 MOL     -0.101383
    113 C35         3.4890   -2.8170   -0.9170 c3        1 MOL     -0.059373
    114 C36         4.7690   -2.4720   -0.1170 c         1 MOL      0.252940
    115 O17         4.6630   -1.8550    0.9190 o         1 MOL     -0.228540
    116 C37         3.4710   -1.9170   -2.1620 c3        1 MOL      0.426101
    117 C38         2.6870   -2.5440   -3.3280 c3        1 MOL     -0.480731
    118 O18         2.8940   -0.6440   -1.8870 oh        1 MOL     -0.682504
    119 H53         1.9290   -1.6610   -0.1560 hn        1 MOL     -0.002379
    120 H54         3.5380   -3.8450   -1.2890 h1        1 MOL      0.068409
    121 H55         4.4900   -1.8160   -2.5300 h1        1 MOL     -0.003692
    122 H56         2.0320   -0.7130   -1.4490 ho        1 MOL      0.526149
    123 H57         1.7010   -2.8210   -2.9690 hc        1 MOL      0.117271
    124 H58         2.7540   -1.9040   -4.2080 hc        1 MOL      0.117271
    125 H59         3.1440   -3.5070   -3.5450 hc        1 MOL      0.117271
    126 N11         5.9480   -2.6590   -0.6940 n         1 MOL     -0.242187
    127 C39         7.1870   -2.2790    0.0560 c3        1 MOL     -0.113575
    128 C40         7.4440   -0.7360    0.2480 c         1 MOL      0.259113
    129 O19         8.2230   -0.3160    1.1060 o         1 MOL     -0.479161
    130 C41         8.4670   -2.7170   -0.6720 c3        1 MOL      0.246609
    131 C42         8.7200   -4.1950   -0.5500 c3        1 MOL     -0.402221
    132 O20         8.2530   -2.4860   -2.0870 oh        1 MOL     -0.651597
    133 H60         6.0010   -2.9530   -1.6650 hn        1 MOL      0.237928
    134 H61         7.2600   -2.6940    1.0540 h1        1 MOL      0.155189
    135 H62         9.3290   -2.1540   -0.3280 h1        1 MOL      0.074333
    136 H63         8.8960   -3.0280   -2.5540 ho        1 MOL      0.413345
    137 H64         7.8380   -4.6920   -0.9350 hc        1 MOL      0.116492
    138 H65         9.6320   -4.4600   -1.0810 hc        1 MOL      0.116492
    139 H66         8.8260   -4.4910    0.5030 hc        1 MOL      0.116492
    140 N12         6.7170    0.0710   -0.5250 n         1 MOL     -0.034856
    141 C43         6.7030    1.5840   -0.4070 c3        1 MOL     -0.016738
    142 C44         5.7420    2.0650    0.7080 c         1 MOL      0.341303
    143 O21         6.0910    2.9950    1.4510 o         1 MOL     -0.476066
    144 C45         6.2110    2.2300   -1.7810 c3        1 MOL     -0.247931
    145 C46         6.9410    1.6630   -3.0670 c3        1 MOL     -0.049235
    146 C47         8.4840    1.8820   -3.0090 c3        1 MOL     -0.016730
    147 C48         9.0940    1.4990   -4.4010 c3        1 MOL      0.148020
    148 N13        10.5740    1.8660   -4.4550 n4        1 MOL     -0.469868
    149 H67         6.1840   -0.3670   -1.2660 hn        1 MOL      0.184560
    150 H68         7.7300    1.9110   -0.2710 h1        1 MOL      0.071267
    151 H69         6.2700    3.3210   -1.7420 hc        1 MOL      0.093963
    152 H70         5.1440    2.0620   -1.8380 hc        1 MOL      0.093963
    153 H71         6.6990    2.2530   -3.9440 hc        1 MOL      0.048892
    154 H72         6.6790    0.6360   -3.2840 hc        1 MOL      0.048892
    155 H73         8.9490    1.1490   -2.3410 hc        1 MOL      0.043470
    156 H74         8.7570    2.9150   -2.8450 hc        1 MOL      0.043470
    157 H75         8.4870    1.8700   -5.2220 hx        1 MOL      0.047574
    158 H76         8.9670    0.4210   -4.4770 hx        1 MOL      0.047574
    159 H77        11.1680    1.2660   -3.9050 hn        1 MOL      0.328264
    160 H78        10.9430    1.7250   -5.3850 hn        1 MOL      0.328264
    161 H79        10.6740    2.8510   -4.2440 hn        1 MOL      0.328264
    162 N14         4.6380    1.3080    0.9250 n         1 MOL      0.033484
    163 C49         3.7500    1.5950    2.0390 c3        1 MOL     -0.435693
    164 C50         4.4510    1.1570    3.3610 c         1 MOL      0.488273
    165 O22         4.5500    1.8700    4.3530 o         1 MOL     -0.511783
    166 C51         2.3570    0.8860    1.7820 c3        1 MOL      0.317774
    167 C52         1.7040    1.6430    0.5340 c3        1 MOL     -0.056525
    168 C53         0.4830    0.8570    0.0840 c         1 MOL      0.729600
    169 O23         0.6240   -0.2190   -0.4730 o         1 MOL     -0.773216
    170 O24        -0.6160    1.2970    0.3060 o         1 MOL     -0.773216
    171 H80         4.4000    0.5350    0.3220 hn        1 MOL      0.078565
    172 H81         3.5290    2.6640    2.0450 h1        1 MOL      0.166684
    173 H82         1.6800    0.9710    2.6460 hc        1 MOL     -0.025615
    174 H83         2.4900   -0.1650    1.5350 hc        1 MOL     -0.025615
    175 H84         2.4620    1.6710   -0.2510 hc        1 MOL      0.000317
    176 H85         1.5960    2.7060    0.7570 hc        1 MOL      0.000317
    177 N15         5.0160   -0.0610    3.3350 n         1 MOL     -0.032053
    178 C54         5.6660   -0.6150    4.5370 c3        1 MOL     -0.250226
    179 H86         5.4380   -1.6780    4.6160 h1        1 MOL      0.097941
    180 H87         6.7460   -0.4800    4.4620 h1        1 MOL      0.097941
    181 H88         5.2960   -0.0970    5.4230 h1        1 MOL      0.097941
    182 H89         4.8330   -0.6830    2.5650 hn        1 MOL      0.021571
    183 Ca1        -1.9320   -0.3430   -1.1590 Ca        1 MOL      1.783901
    184 O25        -0.2640    0.4420   -3.2430 oh        1 MOL     -0.889524
    185 H90        -0.9390    1.0550   -3.5350 ho        1 MOL      0.409699
    186 H91         0.5160    0.6800   -3.7430 ho        1 MOL      0.409699
    187 O26        -0.9290   -2.4860   -2.8250 oh        1 MOL     -0.889524
    188 H92        -0.9760   -3.2690   -3.3640 ho        1 MOL      0.409699
    189 H93        -0.5490   -1.8200   -3.4050 ho        1 MOL      0.409699
@<TRIPOS>BOND
     1    1    2 1   
     2    1    4 1   
     3    1    5 1   
     4    1    6 1   
     5    2    3 2   
     6    2    7 1   
     7    7    8 1   
     8    7   15 1   
     9    8    9 1   
    10    8   11 1   
    11    8   16 1   
    12    9   10 2   
    13    9   19 1   
    14   11   12 1   
    15   11   17 1   
    16   11   18 1   
    17   12   13 1   
    18   12   14 1   
    19   19   20 1   
    20   19   28 1   
    21   20   21 1   
    22   20   23 1   
    23   20   29 1   
    24   21   22 2   
    25   21   41 1   
    26   23   24 1   
    27   23   30 1   
    28   23   31 1   
    29   24   25 1   
    30   24   32 1   
    31   24   33 1   
    32   25   26 1   
    33   25   34 1   
    34   25   35 1   
    35   26   27 1   
    36   26   36 1   
    37   26   37 1   
    38   27   38 1   
    39   27   39 1   
    40   27   40 1   
    41   41   42 1   
    42   41   49 1   
    43   42   43 1   
    44   42   45 1   
    45   42   50 1   
    46   43   44 2   
    47   43   53 1   
    48   45   46 1   
    49   45   51 1   
    50   45   52 1   
    51   46   47 1   
    52   46   48 1   
    53   53   54 1   
    54   53   57 1   
    55   54   55 1   
    56   54   58 1   
    57   54   59 1   
    58   55   56 2   
    59   55   60 1   
    60   60   61 1   
    61   60   68 1   
    62   61   62 1   
    63   61   64 1   
    64   61   69 1   
    65   62   63 2   
    66   62   72 1   
    67   64   65 1   
    68   64   70 1   
    69   64   71 1   
    70   65   66 1   
    71   65   67 1   
    72   72   73 1   
    73   72   76 1   
    74   73   74 1   
    75   73   77 1   
    76   73   78 1   
    77   74   75 2   
    78   74   79 1   
    79   79   80 1   
    80   79   86 1   
    81   80   81 1   
    82   80   83 1   
    83   80   87 1   
    84   81   82 2   
    85   81   93 1   
    86   83   84 1   
    87   83   85 1   
    88   83   88 1   
    89   84   90 1   
    90   84   91 1   
    91   84   92 1   
    92   85   89 1   
    93   93   94 1   
    94   93  101 1   
    95   94   95 1   
    96   94   97 1   
    97   94  102 1   
    98   95   96 2   
    99   95  112 1   
   100   97   98 1   
   101   97   99 1   
   102   97  103 1   
   103   98  100 1   
   104   98  104 1   
   105   98  105 1   
   106   99  106 1   
   107   99  107 1   
   108   99  108 1   
   109  100  109 1   
   110  100  110 1   
   111  100  111 1   
   112  112  113 1   
   113  112  119 1   
   114  113  114 1   
   115  113  116 1   
   116  113  120 1   
   117  114  115 2   
   118  114  126 1   
   119  116  117 1   
   120  116  118 1   
   121  116  121 1   
   122  117  123 1   
   123  117  124 1   
   124  117  125 1   
   125  118  122 1   
   126  126  127 1   
   127  126  133 1   
   128  127  128 1   
   129  127  130 1   
   130  127  134 1   
   131  128  129 2   
   132  128  140 1   
   133  130  131 1   
   134  130  132 1   
   135  130  135 1   
   136  131  137 1   
   137  131  138 1   
   138  131  139 1   
   139  132  136 1   
   140  140  141 1   
   141  140  149 1   
   142  141  142 1   
   143  141  144 1   
   144  141  150 1   
   145  142  143 2   
   146  142  162 1   
   147  144  145 1   
   148  144  151 1   
   149  144  152 1   
   150  145  146 1   
   151  145  153 1   
   152  145  154 1   
   153  146  147 1   
   154  146  155 1   
   155  146  156 1   
   156  147  148 1   
   157  147  157 1   
   158  147  158 1   
   159  148  159 1   
   160  148  160 1   
   161  148  161 1   
   162  162  163 1   
   163  162  171 1   
   164  163  164 1   
   165  163  166 1   
   166  163  172 1   
   167  164  165 2   
   168  164  177 1   
   169  166  167 1   
   170  166  173 1   
   171  166  174 1   
   172  167  168 1   
   173  167  175 1   
   174  167  176 1   
   175  168  169 1   
   176  168  170 1   
   177  177  178 1   
   178  177  182 1   
   179  178  179 1   
   180  178  180 1   
   181  178  181 1   
   182  184  185 1   
   183  184  186 1   
   184  187  188 1   
   185  187  189 1   
@<TRIPOS>SUBSTRUCTURE
     1 MOL         1 TEMP              0 ****  ****    0 ROOT
