@<TRIPOS>MOLECULE
MOL
  189   185     1     0     0
SMALL
resp


@<TRIPOS>ATOM
      1 C1         -0.7570    1.9560    5.7190 c3        1 MOL     -0.381487
      2 C2         -1.1070    1.6750    4.2720 c         1 MOL      0.653076
      3 O1         -0.3660    2.0680    3.3530 o         1 MOL     -0.615679
      4 H1          0.2160    2.4440    5.7680 hc        1 MOL      0.099539
      5 H2         -1.5130    2.6090    6.1550 hc        1 MOL      0.099539
      6 H3         -0.7220    1.0180    6.2730 hc        1 MOL      0.099539
      7 N1         -2.1830    0.9790    4.0310 n         1 MOL     -0.465768
      8 C3         -2.8660    1.0300    2.7590 c3        1 MOL      0.156688
      9 C4         -3.3350    2.4900    2.4570 c         1 MOL      0.407139
     10 O2         -4.4320    2.8960    2.7490 o         1 MOL     -0.498268
     11 C5         -3.9670   -0.0060    2.7530 c3        1 MOL     -0.103876
     12 C6         -4.6060   -0.1260    1.3330 c         1 MOL      0.603219
     13 O3         -5.8850   -0.0430    1.2480 o         1 MOL     -0.618269
     14 O4         -3.8400   -0.0400    0.3440 o         1 MOL     -0.618269
     15 H4         -2.7010    0.7240    4.8640 hn        1 MOL      0.279628
     16 H5         -2.1330    0.6220    2.0640 h1        1 MOL     -0.009082
     17 H6         -4.7470    0.2100    3.4870 hc        1 MOL      0.022969
     18 H7         -3.5870   -1.0030    2.9530 hc        1 MOL      0.022969
     19 N2         -2.4760    3.3100    1.9120 n         1 MOL     -0.174163
     20 C7         -2.5740    4.7280    1.6850 c3        1 MOL     -0.241741
     21 C8         -3.5410    5.0500    0.5810 c         1 MOL      0.609488
     22 O5         -4.0800    6.1320    0.5240 o         1 MOL     -0.593459
     23 C9         -1.1410    5.2220    1.3800 c3        1 MOL      0.057670
     24 C10        -1.0160    6.7920    1.2710 c3        1 MOL     -0.100226
     25 C11         0.5110    7.0970    1.2710 c3        1 MOL      0.107114
     26 C12         0.8980    8.3880    0.7360 c3        1 MOL     -0.064717
     27 N3          0.3640    9.6160    1.4930 n4        1 MOL     -0.302011
     28 H8         -1.5360    2.9560    1.8010 hn        1 MOL      0.228269
     29 H9         -2.9370    5.1520    2.6130 h1        1 MOL      0.125796
     30 H10        -0.7110    4.7210    0.5080 hc        1 MOL      0.053555
     31 H11        -0.5300    4.8870    2.2230 hc        1 MOL      0.053555
     32 H12        -1.5770    7.2850    2.0610 hc        1 MOL      0.032601
     33 H13        -1.4090    7.0090    0.2800 hc        1 MOL      0.032601
     34 H14         1.0090    6.2970    0.7030 hc        1 MOL      0.011371
     35 H15         0.8400    6.9400    2.2960 hc        1 MOL      0.011371
     36 H16         0.5840    8.3950   -0.3080 hx        1 MOL      0.096704
     37 H17         1.9820    8.5070    0.7850 hx        1 MOL      0.096704
     38 H18         0.4250    9.4630    2.4860 hn        1 MOL      0.313061
     39 H19         0.7720   10.4700    1.1330 hn        1 MOL      0.313061
     40 H20        -0.6000    9.7110    1.2050 hn        1 MOL      0.313061
     41 N4         -3.7830    4.0720   -0.3710 n         1 MOL     -0.339830
     42 C13        -4.5820    4.1510   -1.6700 c3        1 MOL      0.109122
     43 C14        -5.8180    3.1930   -1.8240 c         1 MOL      0.424051
     44 O6         -6.5230    3.4140   -2.8230 o         1 MOL     -0.536433
     45 C15        -3.6690    3.9900   -2.9170 c3        1 MOL     -0.368918
     46 C16        -2.8980    2.5650   -2.8490 c         1 MOL      0.937175
     47 O7         -2.0780    2.4300   -3.7440 o         1 MOL     -0.744854
     48 O8         -2.9690    1.7980   -1.8810 o         1 MOL     -0.744854
     49 H21        -3.2540    3.2250   -0.2380 hn        1 MOL      0.123697
     50 H22        -5.0560    5.1340   -1.6530 h1        1 MOL      0.070924
     51 H23        -2.9130    4.7710   -2.8010 hc        1 MOL      0.090952
     52 H24        -4.2860    4.0880   -3.8100 hc        1 MOL      0.090952
     53 N5         -6.0340    2.1520   -1.0000 n         1 MOL     -0.294014
     54 C17        -7.3430    1.5030   -0.9610 c3        1 MOL     -0.074682
     55 C18        -7.5320    0.0790   -1.5010 c         1 MOL      0.474863
     56 O9         -8.6100   -0.5080   -1.4910 o         1 MOL     -0.581471
     57 H25        -5.2570    1.8420   -0.4330 hn        1 MOL      0.233196
     58 H26        -8.1570    2.0850   -1.3820 h1        1 MOL      0.100686
     59 H27        -7.6360    1.5120    0.0900 h1        1 MOL      0.100686
     60 N6         -6.4320   -0.6140   -1.8540 n         1 MOL     -0.274828
     61 C19        -6.5160   -1.9970   -2.4660 c3        1 MOL      0.047716
     62 C20        -6.4910   -3.0600   -1.3730 c         1 MOL      0.422424
     63 O10        -6.5230   -4.2410   -1.6570 o         1 MOL     -0.535993
     64 C21        -5.2950   -2.1020   -3.4580 c3        1 MOL     -0.417581
     65 C22        -3.9240   -1.6870   -2.8660 c         1 MOL      0.863076
     66 O11        -3.5910   -2.1990   -1.7950 o         1 MOL     -0.752746
     67 O12        -3.2560   -0.7270   -3.2990 o         1 MOL     -0.752746
     68 H28        -5.5330   -0.1550   -1.8000 hn        1 MOL      0.223385
     69 H29        -7.4330   -2.1640   -3.0200 h1        1 MOL      0.125609
     70 H30        -5.5300   -1.3570   -4.2230 hc        1 MOL      0.108096
     71 H31        -5.3940   -3.1110   -3.8420 hc        1 MOL      0.108096
     72 N7         -6.2780   -2.6680   -0.1130 n         1 MOL     -0.113205
     73 C23        -6.0690   -3.5230    1.0460 c3        1 MOL     -0.175790
     74 C24        -4.8260   -4.4960    1.1100 c         1 MOL      0.532344
     75 O13        -4.8420   -5.5940    1.5350 o         1 MOL     -0.559230
     76 H32        -6.1980   -1.6860    0.1140 hn        1 MOL      0.194270
     77 H33        -6.9190   -4.2040    1.1150 h1        1 MOL      0.071606
     78 H34        -5.9930   -2.8620    1.9080 h1        1 MOL      0.071606
     79 N8         -3.7600   -4.0790    0.4570 n         1 MOL     -0.088990
     80 C25        -2.5320   -4.8580    0.3610 c3        1 MOL     -0.227556
     81 C26        -1.3830   -3.8360    0.6380 c         1 MOL      0.460454
     82 O14        -1.4940   -2.6330    0.3530 o         1 MOL     -0.554196
     83 C27        -2.4020   -5.6560   -0.9050 c3        1 MOL      0.557463
     84 C28        -3.4930   -6.6770   -0.9700 c3        1 MOL     -0.519047
     85 O15        -2.6180   -4.7160   -1.9870 oh        1 MOL     -0.696466
     86 H35        -3.8260   -3.1340    0.1100 hn        1 MOL      0.111183
     87 H36        -2.5860   -5.5730    1.1730 h1        1 MOL      0.076821
     88 H37        -1.4120   -6.1000   -0.9130 h1        1 MOL     -0.037022
     89 H38        -3.1180   -3.9310   -1.7450 ho        1 MOL      0.455021
     90 H39        -3.4260   -7.3980   -1.7940 hc        1 MOL      0.128548
     91 H40        -3.4240   -7.2460   -0.0460 hc        1 MOL      0.128548
     92 H41        -4.4440   -6.1630   -0.8590 hc        1 MOL      0.128548
     93 N9         -0.2210   -4.2840    1.0940 n         1 MOL     -0.393607
     94 C29         0.9840   -3.4870    1.3840 c3        1 MOL      0.006417
     95 C30         2.2000   -3.7500    0.5010 c         1 MOL      0.431979
     96 O16         2.8370   -4.7750    0.4050 o         1 MOL     -0.544258
     97 C31         1.2240   -3.5380    2.9000 c3        1 MOL      0.178192
     98 C32         0.0350   -2.7730    3.5290 c3        1 MOL     -0.031793
     99 C33         2.5380   -2.9920    3.3810 c3        1 MOL     -0.365342
    100 C34        -0.0260   -2.7470    5.1150 c3        1 MOL     -0.360777
    101 H42        -0.1250   -5.2780    1.2900 hn        1 MOL      0.271724
    102 H43         0.7330   -2.4530    1.1560 h1        1 MOL     -0.012955
    103 H44         1.0150   -4.5740    3.1560 hc        1 MOL     -0.002990
    104 H45        -0.8910   -3.2630    3.2450 hc        1 MOL      0.059332
    105 H46         0.0050   -1.7740    3.1000 hc        1 MOL      0.059332
    106 H47         3.3160   -3.2280    2.6550 hc        1 MOL      0.083127
    107 H48         2.5830   -1.9120    3.5490 hc        1 MOL      0.083127
    108 H49         2.8400   -3.6240    4.2150 hc        1 MOL      0.083127
    109 H50        -1.0280   -2.4900    5.4620 hc        1 MOL      0.094369
    110 H51         0.3530   -3.6720    5.5440 hc        1 MOL      0.094369
    111 H52         0.6810   -2.0280    5.5230 hc        1 MOL      0.094369
    112 N10         2.4700   -2.7880   -0.3700 n         1 MOL     -0.059000
    113 C35         3.6810   -2.7710   -1.1210 c3        1 MOL     -0.197326
    114 C36         4.9290   -2.5580   -0.1980 c         1 MOL      0.315137
    115 O17         4.8160   -2.0400    0.9190 o         1 MOL     -0.217117
    116 C37         3.6480   -1.7660   -2.2510 c3        1 MOL      0.362766
    117 C38         2.7450   -2.0270   -3.3880 c3        1 MOL     -0.316772
    118 O18         3.4260   -0.4280   -1.9040 oh        1 MOL     -0.559926
    119 H53         1.8080   -2.0240   -0.3990 hn        1 MOL      0.190928
    120 H54         3.8350   -3.7330   -1.6140 h1        1 MOL      0.087225
    121 H55         4.6510   -1.8560   -2.6770 h1        1 MOL      0.005483
    122 H56         2.6050   -0.3710   -1.4210 ho        1 MOL      0.363241
    123 H57         1.8050   -1.4830   -3.2730 hc        1 MOL      0.072616
    124 H58         3.2550   -1.5500   -4.2260 hc        1 MOL      0.072616
    125 H59         2.6340   -3.0910   -3.5840 hc        1 MOL      0.072616
    126 N11         6.1440   -2.8380   -0.7570 n         1 MOL     -0.345244
    127 C39         7.4860   -2.2500   -0.1760 c3        1 MOL     -0.140344
    128 C40         7.4480   -0.7780    0.1490 c         1 MOL      0.494074
    129 O19         7.8370   -0.4400    1.2300 o         1 MOL     -0.499914
    130 C41         8.7300   -2.3650   -1.0530 c3        1 MOL      0.275458
    131 C42         9.1130   -3.8370   -1.3140 c3        1 MOL     -0.417459
    132 O20         8.4550   -1.8310   -2.2960 oh        1 MOL     -0.607839
    133 H60         6.1060   -3.4230   -1.5770 hn        1 MOL      0.292565
    134 H61         7.6870   -2.7660    0.7620 h1        1 MOL      0.162049
    135 H62         9.5430   -1.8820   -0.5040 h1        1 MOL      0.055650
    136 H63         9.3210   -1.8150   -2.7160 ho        1 MOL      0.398889
    137 H64         8.9590   -4.3570   -0.3710 hc        1 MOL      0.119322
    138 H65         8.5150   -4.1840   -2.1650 hc        1 MOL      0.119322
    139 H66        10.1630   -3.9110   -1.5790 hc        1 MOL      0.119322
    140 N12         6.8670    0.1280   -0.6890 n         1 MOL     -0.429406
    141 C43         6.7100    1.5570   -0.3960 c3        1 MOL     -0.165744
    142 C44         5.7220    1.8080    0.7750 c         1 MOL      0.480542
    143 O21         5.7350    2.8910    1.2830 o         1 MOL     -0.556051
    144 C45         6.2080    2.2890   -1.6100 c3        1 MOL     -0.058291
    145 C46         7.2050    2.2760   -2.7520 c3        1 MOL      0.116459
    146 C47         6.8090    3.0300   -4.0490 c3        1 MOL     -0.086042
    147 C48         8.0520    2.9890   -4.9620 c3        1 MOL      0.148361
    148 N13         7.8020    3.8700   -6.0430 n4        1 MOL     -0.397119
    149 H67         6.5890   -0.2410   -1.5820 hn        1 MOL      0.321641
    150 H68         7.6800    1.9090   -0.0540 h1        1 MOL      0.163051
    151 H69         5.9870    3.3390   -1.4360 hc        1 MOL      0.052645
    152 H70         5.2750    1.8460   -1.9620 hc        1 MOL      0.052645
    153 H71         7.4400    1.2580   -3.0740 hc        1 MOL     -0.021843
    154 H72         8.1410    2.6770   -2.3720 hc        1 MOL     -0.021843
    155 H73         6.6410    4.0840   -3.8260 hc        1 MOL      0.043824
    156 H74         5.9260    2.5510   -4.4780 hc        1 MOL      0.043824
    157 H75         8.3120    1.9510   -5.1890 hx        1 MOL      0.057126
    158 H76         8.9870    3.3450   -4.5230 hx        1 MOL      0.057126
    159 H77         7.9050    4.8370   -5.7730 hn        1 MOL      0.316277
    160 H78         8.3890    3.6670   -6.8380 hn        1 MOL      0.316277
    161 H79         6.9280    3.6630   -6.5010 hn        1 MOL      0.316277
    162 N14         4.8950    0.8460    1.1930 n         1 MOL      0.060856
    163 C49         4.0250    0.9440    2.3310 c3        1 MOL     -0.285748
    164 C50         4.5930    0.1880    3.5640 c         1 MOL      0.500901
    165 O22         4.3200    0.4890    4.7200 o         1 MOL     -0.566314
    166 C51         2.5340    0.5240    1.9930 c3        1 MOL     -0.016862
    167 C52         1.8820    1.3650    0.8760 c3        1 MOL     -0.066103
    168 C53         0.6790    0.6570    0.3390 c         1 MOL      0.735394
    169 O23         0.9040   -0.4380   -0.2740 o         1 MOL     -0.700503
    170 O24        -0.3710    1.3010    0.1490 o         1 MOL     -0.700503
    171 H80         4.8140   -0.0230    0.6800 hn        1 MOL     -0.025109
    172 H81         4.0080    2.0100    2.5690 h1        1 MOL      0.125525
    173 H82         1.8420    0.4270    2.8310 hc        1 MOL      0.089098
    174 H83         2.5740   -0.5020    1.6200 hc        1 MOL      0.089098
    175 H84         2.5110    1.4980    0.0000 hc        1 MOL      0.004022
    176 H85         1.5860    2.3270    1.3050 hc        1 MOL      0.004022
    177 N15         5.3300   -0.8800    3.3280 n         1 MOL     -0.042011
    178 C54         6.1530   -1.5380    4.3240 c3        1 MOL     -0.237984
    179 H86         7.0900   -0.9930    4.4370 h1        1 MOL      0.087599
    180 H87         5.6260   -1.5550    5.2780 h1        1 MOL      0.087599
    181 H88         6.3630   -2.5590    4.0060 h1        1 MOL      0.087599
    182 H89         5.4760   -1.1300    2.3590 hn        1 MOL      0.064510
    183 Ca1        -1.7810   -0.3260   -1.2190 Ca        1 MOL      1.739276
    184 O25        -0.2280    1.0320   -2.9750 oh        1 MOL     -0.859650
    185 H90        -1.0140    1.3730   -3.4090 ho        1 MOL      0.398795
    186 H91         0.4550    1.0660   -3.6460 ho        1 MOL      0.398795
    187 O26        -0.4280   -2.4870   -2.2990 oh        1 MOL     -0.859650
    188 H92        -0.3460   -2.5750   -3.2570 ho        1 MOL      0.398795
    189 H93         0.0650   -3.2200   -1.9500 ho        1 MOL      0.398795
@<TRIPOS>BOND
     1    1    2 1   
     2    1    4 1   
     3    1    5 1   
     4    1    6 1   
     5    2    3 2   
     6    2    7 1   
     7    7    8 1   
     8    7   15 1   
     9    8    9 1   
    10    8   11 1   
    11    8   16 1   
    12    9   10 2   
    13    9   19 1   
    14   11   12 1   
    15   11   17 1   
    16   11   18 1   
    17   12   13 1   
    18   12   14 1   
    19   19   20 1   
    20   19   28 1   
    21   20   21 1   
    22   20   23 1   
    23   20   29 1   
    24   21   22 2   
    25   21   41 1   
    26   23   24 1   
    27   23   30 1   
    28   23   31 1   
    29   24   25 1   
    30   24   32 1   
    31   24   33 1   
    32   25   26 1   
    33   25   34 1   
    34   25   35 1   
    35   26   27 1   
    36   26   36 1   
    37   26   37 1   
    38   27   38 1   
    39   27   39 1   
    40   27   40 1   
    41   41   42 1   
    42   41   49 1   
    43   42   43 1   
    44   42   45 1   
    45   42   50 1   
    46   43   44 2   
    47   43   53 1   
    48   45   46 1   
    49   45   51 1   
    50   45   52 1   
    51   46   47 1   
    52   46   48 1   
    53   53   54 1   
    54   53   57 1   
    55   54   55 1   
    56   54   58 1   
    57   54   59 1   
    58   55   56 2   
    59   55   60 1   
    60   60   61 1   
    61   60   68 1   
    62   61   62 1   
    63   61   64 1   
    64   61   69 1   
    65   62   63 2   
    66   62   72 1   
    67   64   65 1   
    68   64   70 1   
    69   64   71 1   
    70   65   66 1   
    71   65   67 1   
    72   72   73 1   
    73   72   76 1   
    74   73   74 1   
    75   73   77 1   
    76   73   78 1   
    77   74   75 2   
    78   74   79 1   
    79   79   80 1   
    80   79   86 1   
    81   80   81 1   
    82   80   83 1   
    83   80   87 1   
    84   81   82 2   
    85   81   93 1   
    86   83   84 1   
    87   83   85 1   
    88   83   88 1   
    89   84   90 1   
    90   84   91 1   
    91   84   92 1   
    92   85   89 1   
    93   93   94 1   
    94   93  101 1   
    95   94   95 1   
    96   94   97 1   
    97   94  102 1   
    98   95   96 2   
    99   95  112 1   
   100   97   98 1   
   101   97   99 1   
   102   97  103 1   
   103   98  100 1   
   104   98  104 1   
   105   98  105 1   
   106   99  106 1   
   107   99  107 1   
   108   99  108 1   
   109  100  109 1   
   110  100  110 1   
   111  100  111 1   
   112  112  113 1   
   113  112  119 1   
   114  113  114 1   
   115  113  116 1   
   116  113  120 1   
   117  114  115 2   
   118  114  126 1   
   119  116  117 1   
   120  116  118 1   
   121  116  121 1   
   122  117  123 1   
   123  117  124 1   
   124  117  125 1   
   125  118  122 1   
   126  126  127 1   
   127  126  133 1   
   128  127  128 1   
   129  127  130 1   
   130  127  134 1   
   131  128  129 2   
   132  128  140 1   
   133  130  131 1   
   134  130  132 1   
   135  130  135 1   
   136  131  137 1   
   137  131  138 1   
   138  131  139 1   
   139  132  136 1   
   140  140  141 1   
   141  140  149 1   
   142  141  142 1   
   143  141  144 1   
   144  141  150 1   
   145  142  143 2   
   146  142  162 1   
   147  144  145 1   
   148  144  151 1   
   149  144  152 1   
   150  145  146 1   
   151  145  153 1   
   152  145  154 1   
   153  146  147 1   
   154  146  155 1   
   155  146  156 1   
   156  147  148 1   
   157  147  157 1   
   158  147  158 1   
   159  148  159 1   
   160  148  160 1   
   161  148  161 1   
   162  162  163 1   
   163  162  171 1   
   164  163  164 1   
   165  163  166 1   
   166  163  172 1   
   167  164  165 2   
   168  164  177 1   
   169  166  167 1   
   170  166  173 1   
   171  166  174 1   
   172  167  168 1   
   173  167  175 1   
   174  167  176 1   
   175  168  169 1   
   176  168  170 1   
   177  177  178 1   
   178  177  182 1   
   179  178  179 1   
   180  178  180 1   
   181  178  181 1   
   182  184  185 1   
   183  184  186 1   
   184  187  188 1   
   185  187  189 1   
@<TRIPOS>SUBSTRUCTURE
     1 MOL         1 TEMP              0 ****  ****    0 ROOT
