@<TRIPOS>MOLECULE
MOL
  179   176     1     0     0
SMALL
resp


@<TRIPOS>ATOM
      1 C1          1.8240    3.8100    3.9650 c3        1 MOL     -0.430990
      2 C2          0.9870    3.5870    2.7440 c         1 MOL      0.732587
      3 O1          1.5080    3.3310    1.6780 o         1 MOL     -0.574068
      4 H1          2.1650    2.8490    4.3510 hc        1 MOL      0.106716
      5 H2          2.6870    4.4240    3.7070 hc        1 MOL      0.106716
      6 H3          1.2310    4.3170    4.7270 hc        1 MOL      0.106716
      7 N1         -0.3110    3.6770    2.9330 n         1 MOL     -0.718291
      8 C3         -1.2580    3.2560    1.9620 c3        1 MOL      0.317904
      9 C4         -1.9340    4.4550    1.1840 c         1 MOL      0.461643
     10 O2         -3.1270    4.6240    1.0930 o         1 MOL     -0.471780
     11 C5         -2.2640    2.2860    2.6650 c3        1 MOL     -0.180982
     12 C6         -3.0720    1.4030    1.7640 c         1 MOL      0.811015
     13 O3         -4.2640    1.1690    2.0450 o         1 MOL     -0.783301
     14 O4         -2.5410    0.9080    0.7470 o         1 MOL     -0.783301
     15 H4         -0.6820    3.7140    3.8680 hn        1 MOL      0.333872
     16 H5         -0.7400    2.7130    1.1780 h1        1 MOL     -0.009226
     17 H6         -3.0180    2.9170    3.1490 hc        1 MOL      0.042458
     18 H7         -1.7920    1.6980    3.4440 hc        1 MOL      0.042458
     19 N2         -1.0160    5.2500    0.6580 n         1 MOL     -0.415209
     20 C7         -1.4050    6.3730   -0.2020 c3        1 MOL      0.017484
     21 C8         -2.3980    6.0420   -1.2500 c         1 MOL      0.394190
     22 O5         -3.2530    6.8180   -1.6460 o         1 MOL     -0.520337
     23 C9         -0.0590    6.8850   -0.6890 c3        1 MOL     -0.305960
     24 C10         0.7950    7.4910    0.5000 c3        1 MOL      0.345123
     25 C11         2.2000    7.7610   -0.0220 c3        1 MOL     -0.016462
     26 C12         3.1660    8.6080    0.8580 c3        1 MOL     -0.254015
     27 N3          3.7620    7.8940    1.9630 n4        1 MOL     -0.294624
     28 H8         -0.0480    4.9660    0.7860 hn        1 MOL      0.306918
     29 H9         -1.8850    7.0860    0.4720 h1        1 MOL      0.099898
     30 H10        -0.0760    7.5960   -1.5120 hc        1 MOL      0.103167
     31 H11         0.4750    6.0460   -1.1540 hc        1 MOL      0.103167
     32 H12         0.8020    6.7970    1.3390 hc        1 MOL     -0.082189
     33 H13         0.3460    8.4280    0.8400 hc        1 MOL     -0.082189
     34 H14         2.0950    8.2770   -0.9720 hc        1 MOL      0.044390
     35 H15         2.5350    6.7330   -0.1960 hc        1 MOL      0.044390
     36 H16         2.6750    9.5010    1.2470 hx        1 MOL      0.170491
     37 H17         4.0560    8.7730    0.2550 hx        1 MOL      0.170491
     38 H18         3.0540    7.5380    2.5950 hn        1 MOL      0.325259
     39 H19         4.3630    7.1850    1.5650 hn        1 MOL      0.325259
     40 H20         4.3370    8.4740    2.5560 hn        1 MOL      0.325259
     41 N4         -2.3210    4.8130   -1.8040 n         1 MOL     -0.103776
     42 C13        -3.2580    4.3710   -2.8840 c3        1 MOL     -0.234320
     43 C14        -4.6050    3.8400   -2.3900 c         1 MOL      0.503056
     44 O6         -5.5280    3.7320   -3.2460 o         1 MOL     -0.529783
     45 C15        -2.5570    3.2140   -3.6780 c3        1 MOL     -0.034326
     46 C16        -2.4000    2.0690   -2.7100 c         1 MOL      0.557655
     47 O7         -1.4030    2.0190   -1.9760 o         1 MOL     -0.697934
     48 O8         -3.2050    1.0850   -2.6270 o         1 MOL     -0.697934
     49 H21        -1.6090    4.1760   -1.4810 hn        1 MOL      0.154290
     50 H22        -3.4780    5.2510   -3.4910 h1        1 MOL      0.147535
     51 H23        -1.6000    3.5480   -4.0590 hc        1 MOL      0.042052
     52 H24        -3.1770    2.9520   -4.5330 hc        1 MOL      0.042052
     53 N5         -4.7780    3.6110   -1.0960 n         1 MOL     -0.116680
     54 C17        -6.0690    3.2170   -0.4090 c3        1 MOL     -0.157932
     55 C18        -6.5900    1.8210   -0.7170 c         1 MOL      0.752531
     56 O9         -7.4950    1.6930   -1.5660 o         1 MOL     -0.580751
     57 H25        -3.9940    3.7330   -0.4690 hn        1 MOL      0.196894
     58 H26        -6.9320    3.8160   -0.6830 h1        1 MOL      0.059675
     59 H27        -6.0570    3.3180    0.6780 h1        1 MOL      0.059675
     60 N6         -6.1800    0.7330   -0.0430 n         1 MOL     -0.621918
     61 C19        -6.9160   -0.5070   -0.0330 c3        1 MOL      0.049553
     62 C20        -6.8710   -1.4600    1.1950 c         1 MOL      0.475810
     63 O10        -7.8360   -2.2170    1.2890 o         1 MOL     -0.550594
     64 C21        -6.4660   -1.2760   -1.2650 c3        1 MOL     -0.350430
     65 C22        -5.2640   -2.1420   -1.0320 c         1 MOL      0.727238
     66 N7         -5.4820   -3.4370   -1.0720 n         1 MOL     -0.729280
     67 O11        -4.1510   -1.6300   -0.8820 o         1 MOL     -0.600166
     68 H28        -5.5410    0.9730    0.7020 hn        1 MOL      0.313566
     69 H29        -7.9770   -0.2900   -0.1230 h1        1 MOL      0.114972
     70 H30        -6.3070   -0.6700   -2.1460 hc        1 MOL      0.127557
     71 H31        -7.2840   -1.9030   -1.6200 hc        1 MOL      0.127557
     72 H32        -6.3600   -3.8510   -1.3280 hn        1 MOL      0.340588
     73 H33        -4.7490   -4.0450   -0.7290 hn        1 MOL      0.340588
     74 N8         -5.9360   -1.3080    2.1090 n         1 MOL     -0.284659
     75 C23        -5.8490   -2.2190    3.3100 c3        1 MOL     -0.172090
     76 C24        -4.5790   -3.1350    3.3680 c         1 MOL      0.535688
     77 O12        -4.4120   -3.8300    4.3330 o         1 MOL     -0.560223
     78 H34        -5.2820   -0.5580    1.9580 hn        1 MOL      0.344995
     79 H35        -6.7760   -2.7980    3.2590 h1        1 MOL      0.112597
     80 H36        -5.8270   -1.6600    4.2510 h1        1 MOL      0.112597
     81 N9         -3.7230   -3.0890    2.3720 n         1 MOL     -0.228089
     82 C25        -2.4460   -3.8450    2.4000 c3        1 MOL      0.059864
     83 C26        -1.3470   -3.0480    1.6770 c         1 MOL      0.509412
     84 O13        -1.5720   -2.0690    0.9670 o         1 MOL     -0.505614
     85 C27        -2.6510   -5.3320    1.8650 c3        1 MOL     -0.180845
     86 C28        -3.1510   -5.4250    0.4390 ca        1 MOL      0.136319
     87 C29        -4.4400   -6.0500    0.2280 ca        1 MOL     -0.226083
     88 C30        -2.2920   -5.0740   -0.6010 ca        1 MOL     -0.226083
     89 C31        -4.7730   -6.4150   -1.0520 ca        1 MOL     -0.191376
     90 C32        -2.7350   -5.4140   -1.8570 ca        1 MOL     -0.191376
     91 C33        -3.9260   -6.1060   -2.1180 ca        1 MOL      0.302459
     92 O14        -4.2960   -6.3910   -3.3640 oh        1 MOL     -0.523090
     93 H37        -3.9170   -2.5440    1.5410 hn        1 MOL      0.072135
     94 H38        -2.2220   -3.9360    3.4620 h1        1 MOL      0.073265
     95 H39        -3.2570   -5.8720    2.5880 hc        1 MOL      0.076466
     96 H40        -1.6710   -5.8020    1.9050 hc        1 MOL      0.076466
     97 H41        -5.1050   -6.3380    1.0370 ha        1 MOL      0.161009
     98 H42        -1.2960   -4.7050   -0.3940 ha        1 MOL      0.161009
     99 H43        -5.6580   -6.9640   -1.3510 ha        1 MOL      0.116216
    100 H44        -2.1860   -5.0430   -2.7170 ha        1 MOL      0.116216
    101 H45        -5.0520   -6.9720   -3.4820 ho        1 MOL      0.407045
    102 N10        -0.1080   -3.5180    1.9380 n         1 MOL     -0.543538
    103 C34         1.1320   -2.9020    1.3480 c3        1 MOL      0.433762
    104 C35         2.2430   -3.8350    0.8470 c         1 MOL      0.307516
    105 O15         2.2840   -4.9260    1.3880 o         1 MOL     -0.520630
    106 C36         1.6800   -1.7810    2.2240 c3        1 MOL     -0.030998
    107 C37         2.2680   -2.2300    3.5380 c3        1 MOL     -0.129629
    108 C38         0.6590   -0.6410    2.4930 c3        1 MOL     -0.434092
    109 C39         3.7730   -2.6020    3.5850 c3        1 MOL     -0.004812
    110 H46         0.0560   -4.2940    2.5590 hn        1 MOL      0.311501
    111 H47         0.8400   -2.3310    0.4650 h1        1 MOL     -0.140582
    112 H48         2.4170   -1.2240    1.6430 hc        1 MOL      0.113368
    113 H49         1.6490   -3.0610    3.8700 hc        1 MOL      0.036837
    114 H50         2.2320   -1.4050    4.2480 hc        1 MOL      0.036837
    115 H51         1.0930    0.3380    2.6860 hc        1 MOL      0.130151
    116 H52         0.0110   -0.4040    1.6490 hc        1 MOL      0.130151
    117 H53         0.0260   -0.8820    3.3470 hc        1 MOL      0.130151
    118 H54         4.1380   -2.8770    4.5770 hc        1 MOL      0.000950
    119 H55         3.9260   -3.4710    2.9440 hc        1 MOL      0.000950
    120 H56         4.3000   -1.7880    3.0900 hc        1 MOL      0.000950
    121 N11         3.1790   -3.3140    0.0610 n         1 MOL     -0.170472
    122 C40         4.4330   -3.9490   -0.3220 c3        1 MOL      0.010511
    123 C41         5.6610   -3.1060    0.0300 c         1 MOL      0.346988
    124 O16         5.5540   -1.8910    0.4070 o         1 MOL     -0.389441
    125 C42         4.3680   -4.3760   -1.8390 c3        1 MOL      0.111850
    126 O17         3.9570   -3.3300   -2.7330 oh        1 MOL     -0.593728
    127 H57         2.8790   -2.4430   -0.3580 hn        1 MOL      0.195174
    128 H58         4.4890   -4.9300    0.1450 h1        1 MOL      0.056011
    129 H59         3.7090   -5.2500   -1.8980 h1        1 MOL      0.042959
    130 H60         5.3320   -4.7860   -2.1450 h1        1 MOL      0.042959
    131 H61         3.2160   -2.8570   -2.3480 ho        1 MOL      0.391924
    132 N12         6.8580   -3.6570   -0.1700 n         1 MOL     -0.388459
    133 C43         8.1000   -2.9580    0.1410 c3        1 MOL      0.146684
    134 C44         8.3690   -1.6740   -0.5560 c         1 MOL      0.543513
    135 O18         8.7710   -0.6960    0.0990 o         1 MOL     -0.558365
    136 C45         9.2360   -3.9910   -0.1720 c3        1 MOL     -0.438890
    137 H62         6.9750   -4.6400   -0.3370 hn        1 MOL      0.298339
    138 H63         8.0770   -2.7240    1.2090 h1        1 MOL      0.073638
    139 H64         9.1550   -4.8820    0.4540 hc        1 MOL      0.127206
    140 H65         9.0950   -4.5130   -1.1150 hc        1 MOL      0.127206
    141 H66        10.1620   -3.4250   -0.2660 hc        1 MOL      0.127206
    142 N13         8.0760   -1.5770   -1.8870 n         1 MOL     -0.448677
    143 C46         8.0040   -0.3080   -2.6370 c3        1 MOL      0.089536
    144 C47         7.1110    0.8090   -1.9950 c         1 MOL      0.329649
    145 O19         7.1830    1.9290   -2.4750 o         1 MOL     -0.522418
    146 C48         7.4360   -0.5730   -4.0170 c3        1 MOL     -0.127676
    147 H67         7.7970   -2.4680   -2.2770 hn        1 MOL      0.250764
    148 H68         9.0110    0.0280   -2.8680 h1        1 MOL      0.083953
    149 H69         6.3820   -0.8420   -3.8650 hc        1 MOL      0.048735
    150 H70         7.3610    0.4200   -4.4550 hc        1 MOL      0.048735
    151 H71         7.9510   -1.1930   -4.7490 hc        1 MOL      0.048735
    152 N14         6.2050    0.5020   -1.0690 n         1 MOL     -0.018773
    153 C49         5.3510    1.3730   -0.3650 c3        1 MOL     -0.050727
    154 C50         6.0160    1.7770    0.9710 c         1 MOL      0.466516
    155 O20         6.0950    2.9070    1.2600 o         1 MOL     -0.540907
    156 C51         3.9980    0.6850   -0.1100 c3        1 MOL      0.157925
    157 C52         3.3020    0.4770   -1.4990 c3        1 MOL     -0.108788
    158 C53         2.0730   -0.3700   -1.4740 c         1 MOL      0.845059
    159 O21         2.1960   -1.4710   -2.0240 o         1 MOL     -0.764175
    160 O22         0.9870   -0.0030   -1.0430 o         1 MOL     -0.764175
    161 H72         6.1400   -0.4990   -0.9150 hn        1 MOL      0.150278
    162 H73         5.1610    2.2590   -0.9530 h1        1 MOL      0.061698
    163 H74         3.4100    1.4410    0.4100 hc        1 MOL     -0.046209
    164 H75         4.0580   -0.1750    0.5560 hc        1 MOL     -0.046209
    165 H76         4.0440    0.0280   -2.1510 hc        1 MOL      0.005485
    166 H77         3.0370    1.4760   -1.8620 hc        1 MOL      0.005485
    167 N15         6.4290    0.7620    1.7770 n         1 MOL     -0.143500
    168 C54         7.0170    1.0040    3.1020 c3        1 MOL     -0.391249
    169 H78         7.4150    0.0700    3.4980 h1        1 MOL      0.137495
    170 H79         7.8220    1.7340    3.0150 h1        1 MOL      0.137495
    171 H80         6.2500    1.3860    3.7760 h1        1 MOL      0.137495
    172 H81         6.1590   -0.1600    1.4740 hn        1 MOL      0.166174
    173 Ca1        -1.6670   -0.4900   -1.1690 Ca        1 MOL      1.811074
    174 O23        -2.4000   -1.8050   -3.6400 oh        1 MOL     -0.867116
    175 H82        -3.0990   -1.5830   -4.2530 ho        1 MOL      0.416970
    176 H83        -1.8450   -2.4240   -4.1160 ho        1 MOL      0.416970
    177 O24        -0.2450   -2.5500   -2.0200 oh        1 MOL     -0.867116
    178 H84         0.6050   -2.1440   -2.2010 ho        1 MOL      0.416970
    179 H85        -0.1730   -3.4420   -2.3710 ho        1 MOL      0.416970
@<TRIPOS>BOND
     1    1    2 1   
     2    1    4 1   
     3    1    5 1   
     4    1    6 1   
     5    2    3 2   
     6    2    7 1   
     7    7    8 1   
     8    7   15 1   
     9    8    9 1   
    10    8   11 1   
    11    8   16 1   
    12    9   10 2   
    13    9   19 1   
    14   11   12 1   
    15   11   17 1   
    16   11   18 1   
    17   12   13 1   
    18   12   14 1   
    19   19   20 1   
    20   19   28 1   
    21   20   21 1   
    22   20   23 1   
    23   20   29 1   
    24   21   22 2   
    25   21   41 1   
    26   23   24 1   
    27   23   30 1   
    28   23   31 1   
    29   24   25 1   
    30   24   32 1   
    31   24   33 1   
    32   25   26 1   
    33   25   34 1   
    34   25   35 1   
    35   26   27 1   
    36   26   36 1   
    37   26   37 1   
    38   27   38 1   
    39   27   39 1   
    40   27   40 1   
    41   41   42 1   
    42   41   49 1   
    43   42   43 1   
    44   42   45 1   
    45   42   50 1   
    46   43   44 2   
    47   43   53 1   
    48   45   46 1   
    49   45   51 1   
    50   45   52 1   
    51   46   47 1   
    52   46   48 1   
    53   53   54 1   
    54   53   57 1   
    55   54   55 1   
    56   54   58 1   
    57   54   59 1   
    58   55   56 2   
    59   55   60 1   
    60   60   61 1   
    61   60   68 1   
    62   61   62 1   
    63   61   64 1   
    64   61   69 1   
    65   62   63 2   
    66   62   74 1   
    67   64   65 1   
    68   64   70 1   
    69   64   71 1   
    70   65   66 1   
    71   65   67 2   
    72   66   72 1   
    73   66   73 1   
    74   74   75 1   
    75   74   78 1   
    76   75   76 1   
    77   75   79 1   
    78   75   80 1   
    79   76   77 2   
    80   76   81 1   
    81   81   82 1   
    82   81   93 1   
    83   82   83 1   
    84   82   85 1   
    85   82   94 1   
    86   83   84 2   
    87   83  102 1   
    88   85   86 1   
    89   85   95 1   
    90   85   96 1   
    91   86   87 ar  
    92   86   88 ar  
    93   87   89 ar  
    94   87   97 1   
    95   88   90 ar  
    96   88   98 1   
    97   89   91 ar  
    98   89   99 1   
    99   90   91 ar  
   100   90  100 1   
   101   91   92 1   
   102   92  101 1   
   103  102  103 1   
   104  102  110 1   
   105  103  104 1   
   106  103  106 1   
   107  103  111 1   
   108  104  105 2   
   109  104  121 1   
   110  106  107 1   
   111  106  108 1   
   112  106  112 1   
   113  107  109 1   
   114  107  113 1   
   115  107  114 1   
   116  108  115 1   
   117  108  116 1   
   118  108  117 1   
   119  109  118 1   
   120  109  119 1   
   121  109  120 1   
   122  121  122 1   
   123  121  127 1   
   124  122  123 1   
   125  122  125 1   
   126  122  128 1   
   127  123  124 2   
   128  123  132 1   
   129  125  126 1   
   130  125  129 1   
   131  125  130 1   
   132  126  131 1   
   133  132  133 1   
   134  132  137 1   
   135  133  134 1   
   136  133  136 1   
   137  133  138 1   
   138  134  135 2   
   139  134  142 1   
   140  136  139 1   
   141  136  140 1   
   142  136  141 1   
   143  142  143 1   
   144  142  147 1   
   145  143  144 1   
   146  143  146 1   
   147  143  148 1   
   148  144  145 2   
   149  144  152 1   
   150  146  149 1   
   151  146  150 1   
   152  146  151 1   
   153  152  153 1   
   154  152  161 1   
   155  153  154 1   
   156  153  156 1   
   157  153  162 1   
   158  154  155 2   
   159  154  167 1   
   160  156  157 1   
   161  156  163 1   
   162  156  164 1   
   163  157  158 1   
   164  157  165 1   
   165  157  166 1   
   166  158  159 1   
   167  158  160 1   
   168  167  168 1   
   169  167  172 1   
   170  168  169 1   
   171  168  170 1   
   172  168  171 1   
   173  174  175 1   
   174  174  176 1   
   175  177  178 1   
   176  177  179 1   
@<TRIPOS>SUBSTRUCTURE
     1 MOL         1 TEMP              0 ****  ****    0 ROOT
