@<TRIPOS>MOLECULE
MOL
  176   174     1     0     0
SMALL
resp


@<TRIPOS>ATOM
      1 C1         -0.9600   -3.6080    6.1960 c3        1 MOL     -0.291939
      2 C2         -0.6890   -3.0140    4.7930 c         1 MOL      0.743981
      3 O1         -1.5710   -2.7580    3.9740 o         1 MOL     -0.602234
      4 H1         -2.0360   -3.6870    6.3540 hc        1 MOL      0.077035
      5 H2         -0.5100   -4.5970    6.2670 hc        1 MOL      0.077035
      6 H3         -0.5290   -2.9560    6.9570 hc        1 MOL      0.077035
      7 N1          0.5950   -2.8460    4.4190 n         1 MOL     -0.633140
      8 C3          1.0840   -2.5820    3.0820 c3        1 MOL      0.055768
      9 C4          1.0570   -3.8260    2.2290 c         1 MOL      0.651107
     10 O2          1.6050   -4.8690    2.4980 o         1 MOL     -0.590853
     11 C5          2.5290   -2.0030    3.1680 c3        1 MOL     -0.222159
     12 C6          3.0460   -1.5140    1.7710 c         1 MOL      0.794475
     13 O3          3.9900   -0.7210    1.7400 o         1 MOL     -0.733126
     14 O4          2.4790   -1.8030    0.7160 o         1 MOL     -0.733126
     15 H4          1.2920   -2.9570    5.1420 hn        1 MOL      0.317345
     16 H5          0.4970   -1.7790    2.6470 h1        1 MOL      0.073603
     17 H6          3.2040   -2.7890    3.5120 hc        1 MOL      0.066310
     18 H7          2.5500   -1.1750    3.8740 hc        1 MOL      0.066310
     19 N2          0.4180   -3.7270    1.0780 n         1 MOL     -0.314835
     20 C7          0.0980   -4.8370    0.1200 c3        1 MOL     -0.198489
     21 C8          1.3380   -5.2840   -0.6870 c         1 MOL      0.593524
     22 O5          1.3480   -6.3430   -1.3490 o         1 MOL     -0.578477
     23 C9         -0.9970   -4.5450   -0.8510 c3        1 MOL      0.158835
     24 C10        -1.6280   -5.8590   -1.4610 c3        1 MOL     -0.276753
     25 C11        -2.6830   -5.4090   -2.3740 c3        1 MOL      0.226229
     26 C12        -2.1530   -4.7200   -3.6460 c3        1 MOL      0.032850
     27 N3         -3.1490   -4.6340   -4.6850 n4        1 MOL     -0.557935
     28 H8          0.0310   -2.8370    0.8030 hn        1 MOL      0.219852
     29 H9         -0.1880   -5.7050    0.7110 h1        1 MOL      0.119326
     30 H10        -0.6510   -3.9540   -1.6930 hc        1 MOL      0.037470
     31 H11        -1.7150   -3.8970   -0.3390 hc        1 MOL      0.037470
     32 H12        -2.1000   -6.4340   -0.6620 hc        1 MOL      0.092862
     33 H13        -0.8870   -6.4030   -2.0550 hc        1 MOL      0.092862
     34 H14        -3.4150   -4.7600   -1.8950 hc        1 MOL     -0.027176
     35 H15        -3.2110   -6.3260   -2.6540 hc        1 MOL     -0.027176
     36 H16        -1.3890   -5.3710   -4.0750 hx        1 MOL      0.075928
     37 H17        -1.8310   -3.7040   -3.4040 hx        1 MOL      0.075928
     38 H18        -3.3880   -5.5240   -5.0860 hn        1 MOL      0.377697
     39 H19        -3.9510   -4.0930   -4.3870 hn        1 MOL      0.377697
     40 H20        -2.7710   -4.0270   -5.4090 hn        1 MOL      0.377697
     41 N4          2.3920   -4.4470   -0.8240 n         1 MOL     -0.480079
     42 C13         3.5550   -4.6410   -1.7690 c3        1 MOL      0.116827
     43 C14         4.9390   -4.2090   -1.1720 c         1 MOL      0.345671
     44 O6          5.9970   -4.6670   -1.5960 o         1 MOL     -0.513910
     45 C15         3.4180   -3.7900   -2.9690 c3        1 MOL     -0.194489
     46 C16         2.8370   -2.3720   -2.6930 c         1 MOL      0.788359
     47 O7          3.6060   -1.5130   -2.2610 o         1 MOL     -0.802316
     48 O8          1.6290   -2.1000   -2.6730 o         1 MOL     -0.802316
     49 H21         2.3250   -3.5850   -0.3160 hn        1 MOL      0.336112
     50 H22         3.6350   -5.6790   -2.0710 h1        1 MOL      0.103494
     51 H23         2.7080   -4.2300   -3.6770 hc        1 MOL      0.047165
     52 H24         4.3410   -3.7720   -3.5530 hc        1 MOL      0.047165
     53 N5          4.8690   -3.3380   -0.1330 n         1 MOL     -0.022744
     54 C17         6.0550   -2.9370    0.6150 c3        1 MOL     -0.219780
     55 C18         6.7100   -1.6350    0.2270 c         1 MOL      0.687106
     56 O9          7.8130   -1.4180    0.6770 o         1 MOL     -0.606382
     57 H25         4.0260   -2.8120    0.0520 hn        1 MOL     -0.007065
     58 H26         6.8380   -3.6590    0.4230 h1        1 MOL      0.102358
     59 H27         5.6600   -2.9260    1.6320 h1        1 MOL      0.102358
     60 N6          6.1290   -0.7520   -0.6000 n         1 MOL     -0.397944
     61 C19         6.7200    0.5410   -1.0520 c3        1 MOL     -0.080995
     62 C20         6.7950    1.6410    0.0160 c         1 MOL      0.470184
     63 O10         7.2630    2.7090   -0.1850 o         1 MOL     -0.530787
     64 C21         5.9700    0.9730   -2.3080 c3        1 MOL     -0.321409
     65 C22         4.6980    1.6970   -1.8820 c         1 MOL      0.846445
     66 N7          4.3600    2.7630   -2.4780 n         1 MOL     -0.847898
     67 O11         4.0210    1.2500   -0.9820 o         1 MOL     -0.696899
     68 H28         5.2690   -1.0200   -1.0520 hn        1 MOL      0.292011
     69 H29         7.7630    0.4300   -1.3640 h1        1 MOL      0.135221
     70 H30         5.7210    0.1410   -2.9700 hc        1 MOL      0.123327
     71 H31         6.5840    1.6920   -2.8570 hc        1 MOL      0.123327
     72 H32         5.0440    3.2500   -3.0210 hn        1 MOL      0.366727
     73 H33         3.6520    3.3420   -2.0340 hn        1 MOL      0.366727
     74 N8          6.3080    1.4010    1.2430 n         1 MOL     -0.160307
     75 C23         6.3360    2.4140    2.3290 c3        1 MOL     -0.420126
     76 C24         5.0400    3.3320    2.4110 c         1 MOL      0.597860
     77 O12         4.9940    4.2130    3.2420 o         1 MOL     -0.544499
     78 H34         5.9200    0.5070    1.5080 hn        1 MOL      0.268372
     79 H35         7.2660    2.9790    2.3140 h1        1 MOL      0.178978
     80 H36         6.2460    1.8330    3.2420 h1        1 MOL      0.178978
     81 N9          3.9330    2.9930    1.6820 n         1 MOL     -0.342923
     82 C25         2.6380    3.6610    1.9310 c3        1 MOL      0.039316
     83 C26         1.4180    2.8110    1.5050 c         1 MOL      0.469530
     84 O13         1.5380    1.9480    0.6050 o         1 MOL     -0.615176
     85 C27         2.5520    5.0880    1.3060 c3        1 MOL     -0.082734
     86 C28         2.6490    5.2190   -0.2480 ca        1 MOL      0.103724
     87 C29         1.5630    5.0100   -1.1290 ca        1 MOL     -0.175069
     88 C30         3.8250    5.7510   -0.7350 ca        1 MOL     -0.175069
     89 C31         1.5750    5.5190   -2.4430 ca        1 MOL     -0.226878
     90 C32         3.9150    6.1860   -2.1130 ca        1 MOL     -0.226878
     91 C33         2.7900    6.0310   -2.9810 ca        1 MOL      0.257472
     92 O14         2.8910    6.5670   -4.2590 oh        1 MOL     -0.459394
     93 H37         3.9840    2.1880    1.0790 hn        1 MOL      0.260080
     94 H38         2.4690    3.8870    2.9920 h1        1 MOL      0.069497
     95 H39         3.2180    5.7340    1.8740 hc        1 MOL      0.057046
     96 H40         1.5570    5.4750    1.5250 hc        1 MOL      0.057046
     97 H41         0.5710    4.6650   -0.8620 ha        1 MOL      0.164988
     98 H42         4.6510    5.9360   -0.0590 ha        1 MOL      0.164988
     99 H43         0.5970    5.5420   -2.9150 ha        1 MOL      0.144648
    100 H44         4.8690    6.5660   -2.4340 ha        1 MOL      0.144648
    101 H45         2.0810    6.3860   -4.7460 ho        1 MOL      0.344705
    102 N10         0.2110    3.1760    1.9440 n         1 MOL     -0.467250
    103 C34        -1.0250    2.5230    1.5290 c3        1 MOL      0.036457
    104 C35        -2.0880    3.4310    0.8640 c         1 MOL      0.291379
    105 O15        -1.9480    4.6430    0.9600 o         1 MOL     -0.495617
    106 C36        -1.6650    1.7610    2.7140 c3        1 MOL      0.060604
    107 C37        -2.3850    2.7520    3.6270 c3        1 MOL     -0.495534
    108 C38        -0.7090    0.9060    3.5420 c3        1 MOL     -0.378078
    109 C39        -3.0840    2.1480    4.8200 c3        1 MOL     -0.034543
    110 H46         0.2330    3.8650    2.6760 hn        1 MOL      0.324622
    111 H47        -0.7900    1.6760    0.8860 h1        1 MOL      0.175397
    112 H48        -2.3630    1.0480    2.2630 hc        1 MOL      0.092467
    113 H49        -3.2650    3.2030    3.1460 hc        1 MOL      0.175581
    114 H50        -1.7190    3.5520    3.9570 hc        1 MOL      0.175581
    115 H51        -0.1230    1.4600    4.2860 hc        1 MOL      0.127808
    116 H52        -1.2730    0.1570    4.0950 hc        1 MOL      0.127808
    117 H53        -0.1180    0.3440    2.8190 hc        1 MOL      0.127808
    118 H54        -3.8240    2.7650    5.3250 hc        1 MOL      0.028007
    119 H55        -3.5850    1.2280    4.5530 hc        1 MOL      0.028007
    120 H56        -2.4030    1.8640    5.6280 hc        1 MOL      0.028007
    121 N11        -2.9800    2.7940    0.1010 n         1 MOL     -0.051501
    122 C40        -4.1280    3.4960   -0.4170 c3        1 MOL      0.016204
    123 C41        -5.4140    2.9310    0.1170 c         1 MOL      0.496269
    124 O16        -5.4100    2.0730    1.0390 o         1 MOL     -0.495709
    125 C42        -4.0990    3.2810   -1.9120 c3        1 MOL     -0.143251
    126 O17        -4.4740    2.0470   -2.2850 oh        1 MOL     -0.259958
    127 H57        -2.8090    1.8460   -0.1960 hn        1 MOL      0.127746
    128 H58        -4.0640    4.5690   -0.2360 h1        1 MOL      0.087266
    129 H59        -3.1710    3.5740   -2.4020 h1        1 MOL      0.065420
    130 H60        -4.9680    3.8570   -2.2560 h1        1 MOL      0.065420
    131 H61        -4.5390    2.0180   -3.2470 ho        1 MOL      0.324362
    132 N12        -6.5600    3.2700   -0.4270 n         1 MOL     -0.427335
    133 C43        -7.9290    2.8540   -0.1170 c3        1 MOL      0.116760
    134 C44        -8.1770    1.4690   -0.7320 c         1 MOL      0.474733
    135 O18        -8.9360    0.6930   -0.1520 o         1 MOL     -0.506323
    136 C45        -8.9140    3.8880   -0.5930 c3        1 MOL     -0.351171
    137 H62        -6.4820    3.8760   -1.2280 hn        1 MOL      0.264132
    138 H63        -8.1390    2.8080    0.9490 h1        1 MOL      0.116881
    139 H64        -8.7240    4.8350   -0.0800 hc        1 MOL      0.109907
    140 H65        -8.8630    4.1170   -1.6610 hc        1 MOL      0.109907
    141 H66        -9.9540    3.6050   -0.3930 hc        1 MOL      0.109907
    142 N13        -7.5080    1.1160   -1.8550 n         1 MOL     -0.468414
    143 C46        -7.4870   -0.3550   -2.3420 c3        1 MOL      0.199208
    144 C47        -6.6450   -1.2610   -1.4390 c         1 MOL      0.361210
    145 O19        -7.0970   -2.3930   -1.2440 o         1 MOL     -0.533122
    146 C48        -7.0300   -0.3760   -3.8050 c3        1 MOL     -0.226072
    147 H67        -6.8910    1.7990   -2.2750 hn        1 MOL      0.243720
    148 H68        -8.4930   -0.7820   -2.2940 h1        1 MOL      0.092556
    149 H69        -7.0320   -1.3930   -4.1800 hc        1 MOL      0.052018
    150 H70        -7.5840    0.3250   -4.4170 hc        1 MOL      0.052018
    151 H71        -5.9640   -0.1370   -3.8160 hc        1 MOL      0.052018
    152 N14        -5.6280   -0.7870   -0.7890 n         1 MOL      0.041148
    153 C49        -4.8950   -1.6340    0.1390 c3        1 MOL     -0.278672
    154 C50        -5.5330   -1.7180    1.5240 c         1 MOL      0.562256
    155 O20        -5.4140   -2.7830    2.1540 o         1 MOL     -0.548846
    156 C51        -3.4930   -1.1560    0.4390 c3        1 MOL      0.048677
    157 C52        -2.6680   -0.9950   -0.8390 c3        1 MOL      0.203063
    158 C53        -1.1950   -0.5650   -0.7100 c         1 MOL      0.767191
    159 O21        -0.6940    0.4260   -1.2550 o         1 MOL     -0.815909
    160 O22        -0.4100   -1.1870    0.0090 o         1 MOL     -0.815909
    161 H72        -5.1990    0.0940   -1.0020 hn        1 MOL     -0.018102
    162 H73        -4.8030   -2.6470   -0.2540 h1        1 MOL      0.131196
    163 H74        -2.9430   -1.8580    1.0690 hc        1 MOL      0.030003
    164 H75        -3.6010   -0.1680    0.8860 hc        1 MOL      0.030003
    165 H76        -3.1000   -0.2170   -1.4690 hc        1 MOL     -0.142081
    166 H77        -2.6110   -1.9510   -1.3440 hc        1 MOL     -0.142081
    167 N15        -6.3520   -0.7440    1.9570 n         1 MOL     -0.153114
    168 C54        -7.3220   -0.9240    3.0120 c3        1 MOL     -0.348810
    169 H78        -8.3180   -0.7010    2.6310 h1        1 MOL      0.133601
    170 H79        -7.2910   -1.9550    3.3640 h1        1 MOL      0.133601
    171 H80        -7.0910   -0.2510    3.8380 h1        1 MOL      0.133601
    172 H81        -6.3650    0.1440    1.4890 hn        1 MOL      0.180447
    173 Ca1         1.8140   -0.0870   -1.1020 Ca        1 MOL      1.836650
    174 O23         2.0100    1.0050   -3.6270 oh        1 MOL     -0.874910
    175 H82         2.4950    0.5690   -4.3320 ho        1 MOL      0.423237
    176 H83         1.4380    1.6200   -4.0780 ho        1 MOL      0.423237
@<TRIPOS>BOND
     1    1    2 1   
     2    1    4 1   
     3    1    5 1   
     4    1    6 1   
     5    2    3 2   
     6    2    7 1   
     7    7    8 1   
     8    7   15 1   
     9    8    9 1   
    10    8   11 1   
    11    8   16 1   
    12    9   10 2   
    13    9   19 1   
    14   11   12 1   
    15   11   17 1   
    16   11   18 1   
    17   12   13 1   
    18   12   14 1   
    19   19   20 1   
    20   19   28 1   
    21   20   21 1   
    22   20   23 1   
    23   20   29 1   
    24   21   22 2   
    25   21   41 1   
    26   23   24 1   
    27   23   30 1   
    28   23   31 1   
    29   24   25 1   
    30   24   32 1   
    31   24   33 1   
    32   25   26 1   
    33   25   34 1   
    34   25   35 1   
    35   26   27 1   
    36   26   36 1   
    37   26   37 1   
    38   27   38 1   
    39   27   39 1   
    40   27   40 1   
    41   41   42 1   
    42   41   49 1   
    43   42   43 1   
    44   42   45 1   
    45   42   50 1   
    46   43   44 2   
    47   43   53 1   
    48   45   46 1   
    49   45   51 1   
    50   45   52 1   
    51   46   47 1   
    52   46   48 1   
    53   53   54 1   
    54   53   57 1   
    55   54   55 1   
    56   54   58 1   
    57   54   59 1   
    58   55   56 2   
    59   55   60 1   
    60   60   61 1   
    61   60   68 1   
    62   61   62 1   
    63   61   64 1   
    64   61   69 1   
    65   62   63 2   
    66   62   74 1   
    67   64   65 1   
    68   64   70 1   
    69   64   71 1   
    70   65   66 1   
    71   65   67 2   
    72   66   72 1   
    73   66   73 1   
    74   74   75 1   
    75   74   78 1   
    76   75   76 1   
    77   75   79 1   
    78   75   80 1   
    79   76   77 2   
    80   76   81 1   
    81   81   82 1   
    82   81   93 1   
    83   82   83 1   
    84   82   85 1   
    85   82   94 1   
    86   83   84 2   
    87   83  102 1   
    88   85   86 1   
    89   85   95 1   
    90   85   96 1   
    91   86   87 ar  
    92   86   88 ar  
    93   87   89 ar  
    94   87   97 1   
    95   88   90 ar  
    96   88   98 1   
    97   89   91 ar  
    98   89   99 1   
    99   90   91 ar  
   100   90  100 1   
   101   91   92 1   
   102   92  101 1   
   103  102  103 1   
   104  102  110 1   
   105  103  104 1   
   106  103  106 1   
   107  103  111 1   
   108  104  105 2   
   109  104  121 1   
   110  106  107 1   
   111  106  108 1   
   112  106  112 1   
   113  107  109 1   
   114  107  113 1   
   115  107  114 1   
   116  108  115 1   
   117  108  116 1   
   118  108  117 1   
   119  109  118 1   
   120  109  119 1   
   121  109  120 1   
   122  121  122 1   
   123  121  127 1   
   124  122  123 1   
   125  122  125 1   
   126  122  128 1   
   127  123  124 2   
   128  123  132 1   
   129  125  126 1   
   130  125  129 1   
   131  125  130 1   
   132  126  131 1   
   133  132  133 1   
   134  132  137 1   
   135  133  134 1   
   136  133  136 1   
   137  133  138 1   
   138  134  135 2   
   139  134  142 1   
   140  136  139 1   
   141  136  140 1   
   142  136  141 1   
   143  142  143 1   
   144  142  147 1   
   145  143  144 1   
   146  143  146 1   
   147  143  148 1   
   148  144  145 2   
   149  144  152 1   
   150  146  149 1   
   151  146  150 1   
   152  146  151 1   
   153  152  153 1   
   154  152  161 1   
   155  153  154 1   
   156  153  156 1   
   157  153  162 1   
   158  154  155 2   
   159  154  167 1   
   160  156  157 1   
   161  156  163 1   
   162  156  164 1   
   163  157  158 1   
   164  157  165 1   
   165  157  166 1   
   166  158  159 1   
   167  158  160 1   
   168  167  168 1   
   169  167  172 1   
   170  168  169 1   
   171  168  170 1   
   172  168  171 1   
   173  174  175 1   
   174  174  176 1   
@<TRIPOS>SUBSTRUCTURE
     1 MOL         1 TEMP              0 ****  ****    0 ROOT
