@<TRIPOS>MOLECULE
MOL
  189   185     1     0     0
SMALL
resp


@<TRIPOS>ATOM
      1 C1          0.1030    3.1580   -5.0750 c3        1 MOL     -0.372131
      2 C2          0.6100    2.5140   -3.8070 c         1 MOL      0.541371
      3 O1         -0.1360    2.4760   -2.8550 o         1 MOL     -0.477331
      4 H1         -0.9710    2.9940   -5.1590 hc        1 MOL      0.095528
      5 H2          0.3060    4.2280   -5.0470 hc        1 MOL      0.095528
      6 H3          0.6060    2.7150   -5.9340 hc        1 MOL      0.095528
      7 N1          1.8060    2.0110   -3.7630 n         1 MOL     -0.357203
      8 C3          2.4560    1.6100   -2.4810 c3        1 MOL      0.127873
      9 C4          2.8700    2.9190   -1.7790 c         1 MOL      0.312290
     10 O2          3.8500    3.5490   -2.1700 o         1 MOL     -0.499336
     11 C5          3.5200    0.5140   -2.6450 c3        1 MOL     -0.383007
     12 C6          4.2750    0.2700   -1.3190 c         1 MOL      0.873638
     13 O3          3.6930    0.5120   -0.2420 o         1 MOL     -0.686443
     14 O4          5.3580   -0.3840   -1.3750 o         1 MOL     -0.686443
     15 H4          2.3970    2.0240   -4.5850 hn        1 MOL      0.287339
     16 H5          1.6860    1.1600   -1.8440 h1        1 MOL     -0.028419
     17 H6          4.2910    0.8500   -3.3400 hc        1 MOL      0.089448
     18 H7          3.0470   -0.3940   -3.0080 hc        1 MOL      0.089448
     19 N2          2.0490    3.4450   -0.8380 n         1 MOL     -0.102241
     20 C7          2.1590    4.7860   -0.3280 c3        1 MOL     -0.217947
     21 C8          3.2820    4.9710    0.6660 c         1 MOL      0.573843
     22 O5          3.7910    6.0680    0.8510 o         1 MOL     -0.580623
     23 C9          0.7820    5.0930    0.3050 c3        1 MOL     -0.038475
     24 C10        -0.2890    5.3220   -0.8400 c3        1 MOL      0.056292
     25 C11        -1.7200    5.7170   -0.3350 c3        1 MOL     -0.150141
     26 C12        -2.6500    6.1370   -1.4690 c3        1 MOL      0.070614
     27 N3         -2.2650    7.4790   -1.9980 n4        1 MOL     -0.369168
     28 H8          1.2030    2.9110   -0.7580 hn        1 MOL      0.285024
     29 H9          2.3180    5.4570   -1.1730 h1        1 MOL      0.093452
     30 H10         0.8970    6.0120    0.8810 hc        1 MOL      0.032797
     31 H11         0.5530    4.3050    1.0210 hc        1 MOL      0.032797
     32 H12        -0.4010    4.3930   -1.4010 hc        1 MOL     -0.011214
     33 H13        -0.0890    6.1470   -1.5120 hc        1 MOL     -0.011214
     34 H14        -1.6830    6.5030    0.4280 hc        1 MOL      0.057446
     35 H15        -2.1000    4.7740    0.0570 hc        1 MOL      0.057446
     36 H16        -3.6740    5.9850   -1.1080 hx        1 MOL      0.096923
     37 H17        -2.4860    5.4850   -2.3300 hx        1 MOL      0.096923
     38 H18        -2.8810    8.0900   -2.5190 hn        1 MOL      0.323643
     39 H19        -1.9480    7.9820   -1.1830 hn        1 MOL      0.323643
     40 H20        -1.4780    7.4160   -2.6280 hn        1 MOL      0.323643
     41 N4          3.6800    3.8820    1.3160 n         1 MOL     -0.266552
     42 C13         4.4750    3.8900    2.5100 c3        1 MOL      0.075565
     43 C14         5.8470    3.1650    2.2570 c         1 MOL      0.438132
     44 O6          6.7140    3.4200    3.0880 o         1 MOL     -0.503618
     45 C15         3.7320    3.3390    3.7410 c3        1 MOL     -0.166448
     46 C16         3.0070    1.9750    3.4150 c         1 MOL      0.678182
     47 O7          2.1500    1.5830    4.2420 o         1 MOL     -0.647663
     48 O8          3.2670    1.2090    2.4440 o         1 MOL     -0.647663
     49 H21         3.2390    3.0040    1.0830 hn        1 MOL      0.139409
     50 H22         4.7650    4.9100    2.7710 h1        1 MOL      0.070762
     51 H23         2.9370    4.0040    4.0810 hc        1 MOL      0.050222
     52 H24         4.4440    3.3400    4.5590 hc        1 MOL      0.050222
     53 N5          6.0040    2.3300    1.1720 n         1 MOL     -0.341410
     54 C17         7.1370    1.5410    0.8910 c3        1 MOL      0.104232
     55 C18         7.3840    0.3250    1.6410 c         1 MOL      0.432938
     56 O9          8.5520    0.0850    2.0150 o         1 MOL     -0.562198
     57 H25         5.2490    2.1390    0.5260 hn        1 MOL      0.213139
     58 H26         8.0560    2.1160    0.7940 h1        1 MOL      0.024126
     59 H27         6.9030    1.0340   -0.0390 h1        1 MOL      0.024126
     60 N6          6.3810   -0.4800    2.0160 n         1 MOL     -0.228454
     61 C19         6.6930   -1.8460    2.3980 c3        1 MOL      0.130317
     62 C20         7.1130   -2.6930    1.1370 c         1 MOL      0.302304
     63 O10         7.7240   -3.7640    1.3300 o         1 MOL     -0.554467
     64 C21         5.5270   -2.5470    3.1100 c3        1 MOL     -0.408822
     65 C22         4.0980   -2.3560    2.6510 c         1 MOL      0.729934
     66 O11         3.9470   -2.4520    1.4050 o         1 MOL     -0.704769
     67 O12         3.1970   -2.0160    3.4910 o         1 MOL     -0.704769
     68 H28         5.4120   -0.2990    1.7600 hn        1 MOL      0.175173
     69 H29         7.4760   -1.9600    3.1370 h1        1 MOL      0.089536
     70 H30         5.6550   -2.3220    4.1660 hc        1 MOL      0.110423
     71 H31         5.7090   -3.5760    2.8170 hc        1 MOL      0.110423
     72 N7          6.6840   -2.3080   -0.0450 n         1 MOL      0.029809
     73 C23         6.8500   -3.0070   -1.2810 c3        1 MOL     -0.172513
     74 C24         5.5750   -3.6190   -1.8730 c         1 MOL      0.513320
     75 O13         5.7190   -4.3410   -2.8700 o         1 MOL     -0.566241
     76 H32         6.1470   -1.4600   -0.0120 hn        1 MOL      0.097583
     77 H33         7.7030   -3.6500   -1.0590 h1        1 MOL      0.092033
     78 H34         7.1880   -2.3390   -2.0580 h1        1 MOL      0.092033
     79 N8          4.3850   -3.4710   -1.2920 n         1 MOL     -0.156350
     80 C25         3.0760   -4.0120   -1.7780 c3        1 MOL     -0.225927
     81 C26         1.8830   -2.9960   -1.6450 c         1 MOL      0.718478
     82 O14         1.9170   -2.1080   -0.8530 o         1 MOL     -0.686977
     83 C27         2.6390   -5.3060   -1.1470 c3        1 MOL      0.397352
     84 C28         3.3930   -6.5790   -1.4050 c3        1 MOL     -0.486745
     85 O15         2.7090   -5.0550    0.2130 oh        1 MOL     -0.602710
     86 H35         4.3970   -2.8490   -0.4960 hn        1 MOL      0.183521
     87 H36         3.2120   -4.2230   -2.8400 h1        1 MOL      0.083911
     88 H37         1.5880   -5.5370   -1.3270 h1        1 MOL      0.050086
     89 H38         3.5250   -4.5920    0.4250 ho        1 MOL      0.380092
     90 H39         3.3460   -6.9540   -2.4320 hc        1 MOL      0.125823
     91 H40         4.3880   -6.6990   -0.9710 hc        1 MOL      0.125823
     92 H41         2.7940   -7.2600   -0.8000 hc        1 MOL      0.125823
     93 N9          0.7970   -3.0980   -2.4630 n         1 MOL     -0.447830
     94 C29        -0.4350   -2.2760   -2.5150 c3        1 MOL     -0.012967
     95 C30        -1.5550   -2.9560   -1.6880 c         1 MOL      0.428089
     96 O16        -1.8620   -4.1050   -2.0610 o         1 MOL     -0.562233
     97 C31        -0.6980   -1.9120   -3.9910 c3        1 MOL      0.182617
     98 C32         0.6090   -1.4320   -4.6550 c3        1 MOL      0.270378
     99 C33        -1.8590   -0.9120   -4.1030 c3        1 MOL     -0.082509
    100 C34         0.4030   -1.3750   -6.1680 c3        1 MOL     -0.327780
    101 H42         0.7460   -3.8900   -3.0960 hn        1 MOL      0.208193
    102 H43        -0.1620   -1.3300   -2.0420 h1        1 MOL      0.093974
    103 H44        -1.0850   -2.7670   -4.5500 hc        1 MOL     -0.022235
    104 H45         1.4630   -2.1100   -4.5370 hc        1 MOL     -0.039312
    105 H46         0.9790   -0.4690   -4.3200 hc        1 MOL     -0.039312
    106 H47        -2.6540   -1.1600   -3.3970 hc        1 MOL     -0.003066
    107 H48        -1.5060    0.1020   -3.9330 hc        1 MOL     -0.003066
    108 H49        -2.3220   -0.9780   -5.0850 hc        1 MOL     -0.003066
    109 H50        -0.5810   -0.9530   -6.4070 hc        1 MOL      0.059477
    110 H51         1.1380   -0.7090   -6.6000 hc        1 MOL      0.059477
    111 H52         0.4290   -2.4070   -6.5090 hc        1 MOL      0.059477
    112 N10        -2.1470   -2.3370   -0.7100 n         1 MOL     -0.032733
    113 C35        -3.3940   -2.8030   -0.1380 c3        1 MOL     -0.141259
    114 C36        -4.6330   -2.2830   -0.8200 c         1 MOL      0.378744
    115 O17        -4.5490   -1.2280   -1.4300 o         1 MOL     -0.330282
    116 C37        -3.4450   -2.4620    1.3350 c3        1 MOL      0.369679
    117 C38        -2.4750   -2.9920    2.3780 c3        1 MOL     -0.404023
    118 O18        -3.3450   -1.0860    1.5300 oh        1 MOL     -0.533244
    119 H53        -1.6720   -1.5380   -0.3270 hn        1 MOL      0.166149
    120 H54        -3.4640   -3.8840   -0.1620 h1        1 MOL      0.062995
    121 H55        -4.4340   -2.6990    1.7180 h1        1 MOL     -0.008868
    122 H56        -2.4420   -0.8090    1.3880 ho        1 MOL      0.328317
    123 H57        -1.7140   -2.2530    2.6150 hc        1 MOL      0.105287
    124 H58        -2.9790   -3.3330    3.2740 hc        1 MOL      0.105287
    125 H59        -1.8680   -3.8070    1.9660 hc        1 MOL      0.105287
    126 N11        -5.8440   -2.8310   -0.6100 n         1 MOL     -0.264272
    127 C39        -7.1520   -2.3500   -1.0550 c3        1 MOL     -0.181200
    128 C40        -7.4390   -0.9000   -0.4980 c         1 MOL      0.437931
    129 O19        -8.1340   -0.1950   -1.1810 o         1 MOL     -0.464597
    130 C41        -8.3820   -3.1670   -0.4790 c3        1 MOL      0.451698
    131 C42        -8.7340   -4.3350   -1.3660 c3        1 MOL     -0.404835
    132 O20        -8.0830   -3.5540    0.8300 oh        1 MOL     -0.627574
    133 H60        -5.8980   -3.6830   -0.0790 hn        1 MOL      0.255647
    134 H61        -7.1710   -2.2080   -2.1290 h1        1 MOL      0.125784
    135 H62        -9.2270   -2.4880   -0.5760 h1        1 MOL      0.023761
    136 H63        -8.8700   -3.4150    1.3490 ho        1 MOL      0.377226
    137 H64        -9.8250   -4.3940   -1.4380 hc        1 MOL      0.108998
    138 H65        -8.3720   -4.1490   -2.3740 hc        1 MOL      0.108998
    139 H66        -8.2490   -5.2540   -1.0340 hc        1 MOL      0.108998
    140 N12        -7.0260   -0.6070    0.7540 n         1 MOL     -0.541223
    141 C43        -7.1290    0.7790    1.3390 c3        1 MOL      0.130768
    142 C44        -6.2230    1.8220    0.6970 c         1 MOL      0.335880
    143 O21        -6.7220    2.8590    0.3100 o         1 MOL     -0.521360
    144 C45        -6.6930    0.6300    2.8130 c3        1 MOL     -0.005072
    145 C46        -7.7450   -0.3360    3.6000 c3        1 MOL     -0.075745
    146 C47        -7.5800   -0.0460    5.0760 c3        1 MOL      0.052957
    147 C48        -8.0480   -1.1390    6.0050 c3        1 MOL     -0.113515
    148 N13        -7.4150   -1.0030    7.3850 n4        1 MOL     -0.138928
    149 H67        -6.5140   -1.3130    1.2630 hn        1 MOL      0.349739
    150 H68        -8.1410    1.1820    1.2180 h1        1 MOL      0.100499
    151 H69        -6.5940    1.5750    3.3390 hc        1 MOL      0.020552
    152 H70        -5.7620    0.0600    2.8450 hc        1 MOL      0.020552
    153 H71        -7.5370   -1.3620    3.2900 hc        1 MOL      0.030745
    154 H72        -8.7550    0.0120    3.3610 hc        1 MOL      0.030745
    155 H73        -8.0840    0.9120    5.2210 hc        1 MOL      0.031872
    156 H74        -6.5660    0.2140    5.3580 hc        1 MOL      0.031872
    157 H75        -7.8330   -2.1640    5.7000 hx        1 MOL      0.112327
    158 H76        -9.1320   -1.0340    5.9860 hx        1 MOL      0.112327
    159 H77        -6.4200   -0.8820    7.3210 hn        1 MOL      0.250343
    160 H78        -7.7740   -0.1170    7.7190 hn        1 MOL      0.250343
    161 H79        -7.7340   -1.6610    8.0890 hn        1 MOL      0.250343
    162 N14        -4.9970    1.6270    0.3220 n         1 MOL     -0.005506
    163 C49        -4.1620    2.5220   -0.5040 c3        1 MOL     -0.178699
    164 C50        -4.7690    2.8110   -1.9260 c         1 MOL      0.591540
    165 O22        -5.0210    3.9180   -2.3920 o         1 MOL     -0.593364
    166 C51        -2.7220    1.9220   -0.6420 c3        1 MOL     -0.038890
    167 C52        -1.8930    1.8770    0.6160 c3        1 MOL      0.017123
    168 C53        -0.6160    1.0570    0.5640 c         1 MOL      0.625014
    169 O23        -0.6930   -0.1930    0.3940 o         1 MOL     -0.655193
    170 O24         0.5290    1.5240    0.7710 o         1 MOL     -0.655193
    171 H80        -4.6460    0.6930    0.5190 hn        1 MOL     -0.010650
    172 H81        -4.0770    3.4840   -0.0130 h1        1 MOL      0.102647
    173 H82        -2.2110    2.6920   -1.2220 hc        1 MOL     -0.054433
    174 H83        -2.7980    0.9040   -1.0380 hc        1 MOL     -0.054433
    175 H84        -2.5740    1.5270    1.3950 hc        1 MOL      0.006453
    176 H85        -1.8650    2.9250    0.9370 hc        1 MOL      0.006453
    177 N15        -5.0470    1.7040   -2.5820 n         1 MOL     -0.101433
    178 C54        -5.5990    1.5700   -3.9350 c3        1 MOL     -0.272222
    179 H86        -6.6210    1.9500   -3.9500 h1        1 MOL      0.112158
    180 H87        -4.9890    2.1420   -4.6350 h1        1 MOL      0.112158
    181 H88        -5.5980    0.5200   -4.2260 h1        1 MOL      0.112158
    182 H89        -4.8600    0.8420   -2.0880 hn        1 MOL      0.161450
    183 Ca1         1.8930   -0.6820    1.3160 Ca        1 MOL      1.763264
    184 O25         0.1830   -0.1490    3.5210 oh        1 MOL     -0.881418
    185 H90        -0.6540   -0.3250    3.9290 ho        1 MOL      0.404627
    186 H91         0.6630    0.3790    4.1620 ho        1 MOL      0.404627
    187 O26         0.8850   -3.2380    1.6500 oh        1 MOL     -0.881418
    188 H92         1.5860   -3.8860    1.5180 ho        1 MOL      0.404627
    189 H93         0.4010   -3.5720    2.4090 ho        1 MOL      0.404627
@<TRIPOS>BOND
     1    1    2 1   
     2    1    4 1   
     3    1    5 1   
     4    1    6 1   
     5    2    3 2   
     6    2    7 1   
     7    7    8 1   
     8    7   15 1   
     9    8    9 1   
    10    8   11 1   
    11    8   16 1   
    12    9   10 2   
    13    9   19 1   
    14   11   12 1   
    15   11   17 1   
    16   11   18 1   
    17   12   13 1   
    18   12   14 1   
    19   19   20 1   
    20   19   28 1   
    21   20   21 1   
    22   20   23 1   
    23   20   29 1   
    24   21   22 2   
    25   21   41 1   
    26   23   24 1   
    27   23   30 1   
    28   23   31 1   
    29   24   25 1   
    30   24   32 1   
    31   24   33 1   
    32   25   26 1   
    33   25   34 1   
    34   25   35 1   
    35   26   27 1   
    36   26   36 1   
    37   26   37 1   
    38   27   38 1   
    39   27   39 1   
    40   27   40 1   
    41   41   42 1   
    42   41   49 1   
    43   42   43 1   
    44   42   45 1   
    45   42   50 1   
    46   43   44 2   
    47   43   53 1   
    48   45   46 1   
    49   45   51 1   
    50   45   52 1   
    51   46   47 1   
    52   46   48 1   
    53   53   54 1   
    54   53   57 1   
    55   54   55 1   
    56   54   58 1   
    57   54   59 1   
    58   55   56 2   
    59   55   60 1   
    60   60   61 1   
    61   60   68 1   
    62   61   62 1   
    63   61   64 1   
    64   61   69 1   
    65   62   63 2   
    66   62   72 1   
    67   64   65 1   
    68   64   70 1   
    69   64   71 1   
    70   65   66 1   
    71   65   67 1   
    72   72   73 1   
    73   72   76 1   
    74   73   74 1   
    75   73   77 1   
    76   73   78 1   
    77   74   75 2   
    78   74   79 1   
    79   79   80 1   
    80   79   86 1   
    81   80   81 1   
    82   80   83 1   
    83   80   87 1   
    84   81   82 2   
    85   81   93 1   
    86   83   84 1   
    87   83   85 1   
    88   83   88 1   
    89   84   90 1   
    90   84   91 1   
    91   84   92 1   
    92   85   89 1   
    93   93   94 1   
    94   93  101 1   
    95   94   95 1   
    96   94   97 1   
    97   94  102 1   
    98   95   96 2   
    99   95  112 1   
   100   97   98 1   
   101   97   99 1   
   102   97  103 1   
   103   98  100 1   
   104   98  104 1   
   105   98  105 1   
   106   99  106 1   
   107   99  107 1   
   108   99  108 1   
   109  100  109 1   
   110  100  110 1   
   111  100  111 1   
   112  112  113 1   
   113  112  119 1   
   114  113  114 1   
   115  113  116 1   
   116  113  120 1   
   117  114  115 2   
   118  114  126 1   
   119  116  117 1   
   120  116  118 1   
   121  116  121 1   
   122  117  123 1   
   123  117  124 1   
   124  117  125 1   
   125  118  122 1   
   126  126  127 1   
   127  126  133 1   
   128  127  128 1   
   129  127  130 1   
   130  127  134 1   
   131  128  129 2   
   132  128  140 1   
   133  130  131 1   
   134  130  132 1   
   135  130  135 1   
   136  131  137 1   
   137  131  138 1   
   138  131  139 1   
   139  132  136 1   
   140  140  141 1   
   141  140  149 1   
   142  141  142 1   
   143  141  144 1   
   144  141  150 1   
   145  142  143 2   
   146  142  162 1   
   147  144  145 1   
   148  144  151 1   
   149  144  152 1   
   150  145  146 1   
   151  145  153 1   
   152  145  154 1   
   153  146  147 1   
   154  146  155 1   
   155  146  156 1   
   156  147  148 1   
   157  147  157 1   
   158  147  158 1   
   159  148  159 1   
   160  148  160 1   
   161  148  161 1   
   162  162  163 1   
   163  162  171 1   
   164  163  164 1   
   165  163  166 1   
   166  163  172 1   
   167  164  165 2   
   168  164  177 1   
   169  166  167 1   
   170  166  173 1   
   171  166  174 1   
   172  167  168 1   
   173  167  175 1   
   174  167  176 1   
   175  168  169 1   
   176  168  170 1   
   177  177  178 1   
   178  177  182 1   
   179  178  179 1   
   180  178  180 1   
   181  178  181 1   
   182  184  185 1   
   183  184  186 1   
   184  187  188 1   
   185  187  189 1   
@<TRIPOS>SUBSTRUCTURE
     1 MOL         1 TEMP              0 ****  ****    0 ROOT
