@<TRIPOS>MOLECULE
MOL
  189   185     1     0     0
SMALL
resp


@<TRIPOS>ATOM
      1 C1         -0.2100    2.0860    5.8610 c3        1 MOL     -0.242012
      2 C2         -0.5690    2.2330    4.3780 c         1 MOL      0.870845
      3 O1          0.1940    2.6490    3.5590 o         1 MOL     -0.651368
      4 H1         -0.8320    2.7570    6.4540 hc        1 MOL      0.049135
      5 H2         -0.3840    1.0580    6.1780 hc        1 MOL      0.049135
      6 H3          0.8400    2.3390    6.0090 hc        1 MOL      0.049135
      7 N1         -1.7590    1.7870    4.0530 n         1 MOL     -0.712359
      8 C3         -2.2240    1.6320    2.6610 c3        1 MOL      0.287633
      9 C4         -2.8370    2.8980    2.0910 c         1 MOL      0.345974
     10 O2         -3.6420    3.6290    2.6420 o         1 MOL     -0.557526
     11 C5         -3.1240    0.4200    2.6460 c3        1 MOL     -0.147843
     12 C6         -3.8290    0.2420    1.2760 c         1 MOL      0.780231
     13 O3         -3.4180    0.9070    0.3030 o         1 MOL     -0.708543
     14 O4         -4.8650   -0.3740    1.2450 o         1 MOL     -0.708543
     15 H4         -2.3330    1.2660    4.7090 hn        1 MOL      0.328027
     16 H5         -1.4100    1.4590    1.9580 h1        1 MOL     -0.045406
     17 H6         -3.8430    0.5170    3.4600 hc        1 MOL      0.025602
     18 H7         -2.5990   -0.5120    2.8360 hc        1 MOL      0.025602
     19 N2         -2.2940    3.2820    0.9170 n         1 MOL     -0.070906
     20 C7         -2.5060    4.5440    0.2040 c3        1 MOL      0.024245
     21 C8         -3.1840    4.4310   -1.0910 c         1 MOL      0.560920
     22 O5         -3.1410    5.3100   -1.9370 o         1 MOL     -0.590578
     23 C9         -1.1670    5.3400    0.1800 c3        1 MOL      0.024952
     24 C10        -0.4120    5.4980    1.5020 c3        1 MOL      0.028970
     25 C11        -1.2520    6.3360    2.5270 c3        1 MOL     -0.188770
     26 C12        -0.5580    6.6160    3.8790 c3        1 MOL      0.131484
     27 N3         -1.3720    7.6170    4.6390 n4        1 MOL     -0.334559
     28 H8         -1.5510    2.7000    0.5480 hn        1 MOL      0.298013
     29 H9         -3.1880    5.1160    0.8440 h1        1 MOL     -0.006947
     30 H10        -1.2940    6.3460   -0.2210 hc        1 MOL     -0.004754
     31 H11        -0.4850    4.7530   -0.4370 hc        1 MOL     -0.004754
     32 H12         0.5080    6.0580    1.3390 hc        1 MOL      0.031180
     33 H13        -0.1730    4.5060    1.8760 hc        1 MOL      0.031180
     34 H14        -2.1870    5.8200    2.7360 hc        1 MOL      0.068549
     35 H15        -1.5250    7.2450    1.9990 hc        1 MOL      0.068549
     36 H16         0.3750    7.0910    3.5850 hx        1 MOL      0.042257
     37 H17        -0.4330    5.7240    4.4960 hx        1 MOL      0.042257
     38 H18        -0.8240    8.0520    5.3770 hn        1 MOL      0.314826
     39 H19        -1.7090    8.3700    4.0610 hn        1 MOL      0.314826
     40 H20        -2.1050    7.1420    5.1410 hn        1 MOL      0.314826
     41 N4         -3.7980    3.3420   -1.3750 n         1 MOL     -0.233764
     42 C13        -4.8020    3.2180   -2.4870 c3        1 MOL     -0.173678
     43 C14        -6.0940    2.6650   -1.9280 c         1 MOL      0.507390
     44 O6         -7.0500    2.5020   -2.6780 o         1 MOL     -0.514169
     45 C15        -4.3810    2.2290   -3.5120 c3        1 MOL      0.085881
     46 C16        -2.8780    2.1530   -3.7410 c         1 MOL      0.671862
     47 O7         -2.3360    2.7800   -4.6810 o         1 MOL     -0.658720
     48 O8         -2.1910    1.4290   -3.0220 o         1 MOL     -0.658720
     49 H21        -3.5250    2.5080   -0.8830 hn        1 MOL     -0.014665
     50 H22        -4.9080    4.1250   -3.0700 h1        1 MOL      0.146069
     51 H23        -4.8390    2.4440   -4.4790 hc        1 MOL     -0.017823
     52 H24        -4.8100    1.2420   -3.3030 hc        1 MOL     -0.017823
     53 N5         -6.1060    2.2660   -0.6520 n         1 MOL     -0.427408
     54 C17        -7.2340    1.5700   -0.0360 c3        1 MOL     -0.325409
     55 C18        -7.5720    0.2360   -0.6510 c         1 MOL      0.428968
     56 O9         -8.7130   -0.2420   -0.4900 o         1 MOL     -0.570249
     57 H25        -5.2040    2.1010   -0.2320 hn        1 MOL      0.336425
     58 H26        -8.1000    2.1660   -0.3290 h1        1 MOL      0.177275
     59 H27        -7.0910    1.5770    1.0460 h1        1 MOL      0.177275
     60 N6         -6.6000   -0.4360   -1.2160 n         1 MOL      0.009310
     61 C19        -6.8570   -1.7560   -1.7980 c3        1 MOL     -0.302698
     62 C20        -6.8660   -2.8900   -0.7630 c         1 MOL      0.509156
     63 O10        -7.2830   -4.0350   -1.0350 o         1 MOL     -0.527728
     64 C21        -5.9090   -2.0050   -2.9820 c3        1 MOL     -0.121431
     65 C22        -4.4840   -1.7840   -2.4950 c         1 MOL      0.700255
     66 O11        -4.1050   -2.0390   -1.3170 o         1 MOL     -0.751379
     67 O12        -3.5690   -1.3820   -3.2490 o         1 MOL     -0.751379
     68 H28        -5.7240    0.0680   -1.2540 hn        1 MOL      0.218527
     69 H29        -7.8380   -1.7660   -2.2720 h1        1 MOL      0.168627
     70 H30        -6.1430   -1.2900   -3.7710 hc        1 MOL      0.076437
     71 H31        -5.9460   -3.0080   -3.4120 hc        1 MOL      0.076437
     72 N7         -6.4810   -2.5910    0.5130 n         1 MOL     -0.247579
     73 C23        -6.4080   -3.5710    1.5120 c3        1 MOL     -0.131475
     74 C24        -5.1200   -4.4460    1.4000 c         1 MOL      0.545911
     75 O13        -5.1720   -5.5840    1.5820 o         1 MOL     -0.538073
     76 H32        -5.9480   -1.7440    0.6330 hn        1 MOL      0.278367
     77 H33        -7.1920   -4.3110    1.4220 h1        1 MOL      0.072528
     78 H34        -6.4780   -3.1150    2.5070 h1        1 MOL      0.072528
     79 N8         -4.0400   -3.8410    0.9360 n         1 MOL     -0.316680
     80 C25        -2.6900   -4.5770    0.7530 c3        1 MOL     -0.241766
     81 C26        -1.5270   -3.5630    0.9410 c         1 MOL      0.614219
     82 O14        -1.6820   -2.3870    0.5750 o         1 MOL     -0.635571
     83 C27        -2.6450   -5.2430   -0.6220 c3        1 MOL      0.485207
     84 C28        -3.3980   -6.5210   -0.6640 c3        1 MOL     -0.575647
     85 O15        -3.0310   -4.4160   -1.6820 oh        1 MOL     -0.575844
     86 H35        -4.1350   -2.9050    0.5740 hn        1 MOL      0.213073
     87 H36        -2.6150   -5.3680    1.4960 h1        1 MOL      0.127921
     88 H37        -1.6010   -5.4790   -0.8300 h1        1 MOL     -0.048906
     89 H38        -3.3620   -3.6460   -1.2050 ho        1 MOL      0.448655
     90 H39        -3.2270   -7.0650    0.2700 hc        1 MOL      0.152439
     91 H40        -4.4410   -6.2820   -0.8420 hc        1 MOL      0.152439
     92 H41        -3.0690   -7.1430   -1.4930 hc        1 MOL      0.152439
     93 N9         -0.3540   -3.9670    1.3210 n         1 MOL     -0.538359
     94 C29         0.8700   -3.1520    1.5970 c3        1 MOL      0.107218
     95 C30         2.0550   -3.6560    0.8930 c         1 MOL      0.448182
     96 O16         2.3870   -4.8350    0.9430 o         1 MOL     -0.560491
     97 C31         1.2120   -3.1410    3.0740 c3        1 MOL      0.078550
     98 C32         0.0950   -2.5130    3.9580 c3        1 MOL      0.173985
     99 C33         2.5050   -2.3300    3.3890 c3        1 MOL     -0.293191
    100 C34         0.2500   -2.6590    5.4620 c3        1 MOL     -0.161480
    101 H42        -0.2980   -4.8820    1.7390 hn        1 MOL      0.288726
    102 H43         0.6270   -2.1210    1.3410 h1        1 MOL      0.061924
    103 H44         1.2650   -4.1950    3.3430 hc        1 MOL      0.011635
    104 H45        -0.8240   -3.0740    3.8090 hc        1 MOL     -0.020742
    105 H46        -0.1270   -1.4620    3.8070 hc        1 MOL     -0.020742
    106 H47         3.3870   -2.7000    2.8760 hc        1 MOL      0.049473
    107 H48         2.3630   -1.2610    3.1980 hc        1 MOL      0.049473
    108 H49         2.6200   -2.4770    4.4540 hc        1 MOL      0.049473
    109 H50         0.5830   -3.6860    5.6270 hc        1 MOL      0.032780
    110 H51         1.0230   -2.0240    5.8970 hc        1 MOL      0.032780
    111 H52        -0.6980   -2.4700    5.9510 hc        1 MOL      0.032780
    112 N10         2.7310   -2.7820    0.1790 n         1 MOL     -0.095209
    113 C35         4.0190   -3.0630   -0.5170 c3        1 MOL      0.213373
    114 C36         5.2730   -2.6030    0.1860 c         1 MOL      0.153341
    115 O17         5.1980   -1.8290    1.1510 o         1 MOL     -0.174155
    116 C37         4.0990   -2.4840   -1.9460 c3        1 MOL      0.016472
    117 C38         2.9060   -2.7660   -2.9050 c3        1 MOL     -0.205546
    118 O18         4.0980   -1.0310   -1.8050 oh        1 MOL     -0.511745
    119 H53         2.3110   -1.8750    0.0970 hn        1 MOL      0.171035
    120 H54         4.0910   -4.1320   -0.6960 h1        1 MOL      0.030315
    121 H55         4.9850   -2.8440   -2.4520 h1        1 MOL      0.076162
    122 H56         3.5350   -0.5930   -2.4420 ho        1 MOL      0.411632
    123 H57         2.5000   -1.9960   -3.5560 hc        1 MOL      0.063023
    124 H58         3.2320   -3.5360   -3.6100 hc        1 MOL      0.063023
    125 H59         2.1120   -3.2160   -2.3020 hc        1 MOL      0.063023
    126 N11         6.4840   -3.0710   -0.2080 n         1 MOL     -0.268294
    127 C39         7.7470   -2.4640    0.1430 c3        1 MOL     -0.410890
    128 C40         7.8380   -0.9500   -0.0070 c         1 MOL      0.500139
    129 O19         8.5190   -0.3020    0.8080 o         1 MOL     -0.507754
    130 C41         8.9560   -3.1190   -0.5160 c3        1 MOL      0.451837
    131 C42         9.1490   -4.5730   -0.1030 c3        1 MOL     -0.378185
    132 O20         8.8510   -3.0530   -1.9210 oh        1 MOL     -0.638445
    133 H60         6.5350   -3.7300   -0.9730 hn        1 MOL      0.311752
    134 H61         7.7770   -2.6770    1.2180 h1        1 MOL      0.190000
    135 H62         9.8290   -2.5070   -0.2740 h1        1 MOL      0.026532
    136 H63         9.7040   -2.7340   -2.2300 ho        1 MOL      0.401685
    137 H64         8.4910   -4.8090    0.7210 hc        1 MOL      0.103677
    138 H65         8.9360   -5.2580   -0.9230 hc        1 MOL      0.103677
    139 H66        10.1380   -4.8010    0.3010 hc        1 MOL      0.103677
    140 N12         7.1960   -0.3670   -1.0190 n         1 MOL     -0.296286
    141 C43         7.2830    1.0980   -1.2520 c3        1 MOL     -0.011765
    142 C44         6.3990    1.7950   -0.2420 c         1 MOL      0.246981
    143 O21         6.7690    2.8250    0.3540 o         1 MOL     -0.483963
    144 C45         6.8160    1.3450   -2.7120 c3        1 MOL     -0.141264
    145 C46         6.7310    2.8150   -3.0560 c3        1 MOL      0.048349
    146 C47         6.2570    3.1300   -4.4550 c3        1 MOL      0.016233
    147 C48         5.9540    4.5910   -4.6590 c3        1 MOL      0.080185
    148 N13         5.7740    4.9460   -6.0950 n4        1 MOL     -0.420409
    149 H67         6.5050   -0.9550   -1.4590 hn        1 MOL      0.228783
    150 H68         8.3230    1.3570   -1.0890 h1        1 MOL      0.143199
    151 H69         5.8100    0.9470   -2.8550 hc        1 MOL      0.035612
    152 H70         7.5820    0.8090   -3.2620 hc        1 MOL      0.035612
    153 H71         7.6800    3.2970   -2.8660 hc        1 MOL      0.013025
    154 H72         6.0740    3.2900   -2.3190 hc        1 MOL      0.013025
    155 H73         5.3770    2.5370   -4.7100 hc        1 MOL      0.016850
    156 H74         7.0920    2.8140   -5.0830 hc        1 MOL      0.016850
    157 H75         6.8540    5.0780   -4.2630 hx        1 MOL      0.078050
    158 H76         5.0530    4.9160   -4.1340 hx        1 MOL      0.078050
    159 H77         4.9950    4.4460   -6.4930 hn        1 MOL      0.312259
    160 H78         5.4250    5.8790   -6.2280 hn        1 MOL      0.312259
    161 H79         6.6470    4.9000   -6.6080 hn        1 MOL      0.312259
    162 N14         5.2740    1.1490    0.0630 n         1 MOL      0.216050
    163 C49         4.2960    1.6810    1.0510 c3        1 MOL     -0.266173
    164 C50         4.8610    1.6240    2.4650 c         1 MOL      0.396545
    165 O22         4.7870    2.7110    3.1190 o         1 MOL     -0.526799
    166 C51         2.9580    0.9720    0.9540 c3        1 MOL      0.024862
    167 C52         2.2210    1.4970   -0.2460 c3        1 MOL     -0.072581
    168 C53         0.8020    0.9400   -0.1590 c         1 MOL      0.788752
    169 O23        -0.1300    1.7130   -0.4630 o         1 MOL     -0.791006
    170 O24         0.5900   -0.2950    0.0130 o         1 MOL     -0.791006
    171 H80         5.0160    0.2950   -0.4030 hn        1 MOL     -0.005442
    172 H81         4.1430    2.7070    0.7150 h1        1 MOL      0.115412
    173 H82         2.3520    1.2090    1.8320 hc        1 MOL      0.054483
    174 H83         3.1440   -0.0940    0.9700 hc        1 MOL      0.054483
    175 H84         2.7420    1.1110   -1.1180 hc        1 MOL     -0.012055
    176 H85         2.2940    2.5850   -0.3600 hc        1 MOL     -0.012055
    177 N15         5.4350    0.4580    2.8990 n         1 MOL      0.016112
    178 C54         6.0790    0.2930    4.1820 c3        1 MOL     -0.391322
    179 H86         5.3670    0.5150    4.9770 h1        1 MOL      0.131418
    180 H87         6.4280   -0.7340    4.2840 h1        1 MOL      0.131418
    181 H88         6.9270    0.9750    4.2540 h1        1 MOL      0.131418
    182 H89         5.4070   -0.3450    2.3030 hn        1 MOL      0.046111
    183 Ca1        -1.6840   -0.4700   -1.3150 Ca        1 MOL      1.733817
    184 O25         0.1990   -0.0010   -3.1840 oh        1 MOL     -0.785070
    185 H90         1.1020    0.1770   -3.4340 ho        1 MOL      0.379287
    186 H91        -0.3230    0.4180   -3.8660 ho        1 MOL      0.379287
    187 O26        -0.9070   -2.7490   -2.7000 oh        1 MOL     -0.785070
    188 H92        -0.2850   -2.7950   -3.4200 ho        1 MOL      0.379287
    189 H93        -1.6040   -3.3640   -2.9460 ho        1 MOL      0.379287
@<TRIPOS>BOND
     1    1    2 1   
     2    1    4 1   
     3    1    5 1   
     4    1    6 1   
     5    2    3 2   
     6    2    7 1   
     7    7    8 1   
     8    7   15 1   
     9    8    9 1   
    10    8   11 1   
    11    8   16 1   
    12    9   10 2   
    13    9   19 1   
    14   11   12 1   
    15   11   17 1   
    16   11   18 1   
    17   12   13 1   
    18   12   14 1   
    19   19   20 1   
    20   19   28 1   
    21   20   21 1   
    22   20   23 1   
    23   20   29 1   
    24   21   22 2   
    25   21   41 1   
    26   23   24 1   
    27   23   30 1   
    28   23   31 1   
    29   24   25 1   
    30   24   32 1   
    31   24   33 1   
    32   25   26 1   
    33   25   34 1   
    34   25   35 1   
    35   26   27 1   
    36   26   36 1   
    37   26   37 1   
    38   27   38 1   
    39   27   39 1   
    40   27   40 1   
    41   41   42 1   
    42   41   49 1   
    43   42   43 1   
    44   42   45 1   
    45   42   50 1   
    46   43   44 2   
    47   43   53 1   
    48   45   46 1   
    49   45   51 1   
    50   45   52 1   
    51   46   47 1   
    52   46   48 1   
    53   53   54 1   
    54   53   57 1   
    55   54   55 1   
    56   54   58 1   
    57   54   59 1   
    58   55   56 2   
    59   55   60 1   
    60   60   61 1   
    61   60   68 1   
    62   61   62 1   
    63   61   64 1   
    64   61   69 1   
    65   62   63 2   
    66   62   72 1   
    67   64   65 1   
    68   64   70 1   
    69   64   71 1   
    70   65   66 1   
    71   65   67 1   
    72   72   73 1   
    73   72   76 1   
    74   73   74 1   
    75   73   77 1   
    76   73   78 1   
    77   74   75 2   
    78   74   79 1   
    79   79   80 1   
    80   79   86 1   
    81   80   81 1   
    82   80   83 1   
    83   80   87 1   
    84   81   82 2   
    85   81   93 1   
    86   83   84 1   
    87   83   85 1   
    88   83   88 1   
    89   84   90 1   
    90   84   91 1   
    91   84   92 1   
    92   85   89 1   
    93   93   94 1   
    94   93  101 1   
    95   94   95 1   
    96   94   97 1   
    97   94  102 1   
    98   95   96 2   
    99   95  112 1   
   100   97   98 1   
   101   97   99 1   
   102   97  103 1   
   103   98  100 1   
   104   98  104 1   
   105   98  105 1   
   106   99  106 1   
   107   99  107 1   
   108   99  108 1   
   109  100  109 1   
   110  100  110 1   
   111  100  111 1   
   112  112  113 1   
   113  112  119 1   
   114  113  114 1   
   115  113  116 1   
   116  113  120 1   
   117  114  115 2   
   118  114  126 1   
   119  116  117 1   
   120  116  118 1   
   121  116  121 1   
   122  117  123 1   
   123  117  124 1   
   124  117  125 1   
   125  118  122 1   
   126  126  127 1   
   127  126  133 1   
   128  127  128 1   
   129  127  130 1   
   130  127  134 1   
   131  128  129 2   
   132  128  140 1   
   133  130  131 1   
   134  130  132 1   
   135  130  135 1   
   136  131  137 1   
   137  131  138 1   
   138  131  139 1   
   139  132  136 1   
   140  140  141 1   
   141  140  149 1   
   142  141  142 1   
   143  141  144 1   
   144  141  150 1   
   145  142  143 2   
   146  142  162 1   
   147  144  145 1   
   148  144  151 1   
   149  144  152 1   
   150  145  146 1   
   151  145  153 1   
   152  145  154 1   
   153  146  147 1   
   154  146  155 1   
   155  146  156 1   
   156  147  148 1   
   157  147  157 1   
   158  147  158 1   
   159  148  159 1   
   160  148  160 1   
   161  148  161 1   
   162  162  163 1   
   163  162  171 1   
   164  163  164 1   
   165  163  166 1   
   166  163  172 1   
   167  164  165 2   
   168  164  177 1   
   169  166  167 1   
   170  166  173 1   
   171  166  174 1   
   172  167  168 1   
   173  167  175 1   
   174  167  176 1   
   175  168  169 1   
   176  168  170 1   
   177  177  178 1   
   178  177  182 1   
   179  178  179 1   
   180  178  180 1   
   181  178  181 1   
   182  184  185 1   
   183  184  186 1   
   184  187  188 1   
   185  187  189 1   
@<TRIPOS>SUBSTRUCTURE
     1 MOL         1 TEMP              0 ****  ****    0 ROOT
