@<TRIPOS>MOLECULE
MOL
  189   185     1     0     0
SMALL
resp


@<TRIPOS>ATOM
      1 C1          0.4120    3.6070   -5.1150 c3        1 MOL     -0.446858
      2 C2          0.6500    2.7700   -3.8040 c         1 MOL      0.787073
      3 O1         -0.2720    2.5080   -3.0720 o         1 MOL     -0.603521
      4 H1          1.3720    3.8850   -5.5480 hc        1 MOL      0.109117
      5 H2         -0.1500    3.0080   -5.8310 hc        1 MOL      0.109117
      6 H3         -0.1510    4.5090   -4.8730 hc        1 MOL      0.109117
      7 N1          1.9140    2.3410   -3.6010 n         1 MOL     -0.823942
      8 C3          2.4050    1.8650   -2.3450 c3        1 MOL      0.487527
      9 C4          2.7800    3.0400   -1.4160 c         1 MOL      0.297878
     10 O2          3.9140    3.4650   -1.4730 o         1 MOL     -0.505667
     11 C5          3.4530    0.7400   -2.5360 c3        1 MOL     -0.232824
     12 C6          4.2230    0.3200   -1.2680 c         1 MOL      0.841867
     13 O3          3.6550    0.5290   -0.1880 o         1 MOL     -0.673827
     14 O4          5.3560   -0.1820   -1.3460 o         1 MOL     -0.673827
     15 H4          2.5860    2.4990   -4.3420 hn        1 MOL      0.386285
     16 H5          1.6440    1.3280   -1.7840 h1        1 MOL     -0.071452
     17 H6          4.1940    1.0060   -3.2940 hc        1 MOL      0.019655
     18 H7          2.8970   -0.1680   -2.7780 hc        1 MOL      0.019655
     19 N2          1.8430    3.5920   -0.6750 n         1 MOL     -0.059197
     20 C7          2.0320    5.0150   -0.1450 c3        1 MOL     -0.153764
     21 C8          2.9210    5.0830    1.1010 c         1 MOL      0.418522
     22 O5          3.2900    6.1560    1.5970 o         1 MOL     -0.558585
     23 C9          0.6950    5.6750    0.2990 c3        1 MOL     -0.270009
     24 C10        -0.2470    5.7730   -0.8540 c3        1 MOL      0.031714
     25 C11         0.2330    6.8420   -1.8000 c3        1 MOL     -0.069388
     26 C12        -0.8220    6.9920   -2.8990 c3        1 MOL      0.180766
     27 N3         -0.5850    8.3280   -3.5510 n4        1 MOL     -0.411072
     28 H8          0.9380    3.1430   -0.6920 hn        1 MOL      0.192265
     29 H9          2.6290    5.5110   -0.9190 h1        1 MOL      0.121062
     30 H10         0.8170    6.6450    0.7730 hc        1 MOL      0.128227
     31 H11         0.1800    4.9660    0.9440 hc        1 MOL      0.128227
     32 H12        -1.2350    6.0550   -0.4830 hc        1 MOL      0.020851
     33 H13        -0.3370    4.8350   -1.3880 hc        1 MOL      0.020851
     34 H14         1.1960    6.6420   -2.2650 hc        1 MOL      0.042933
     35 H15         0.3480    7.7610   -1.2230 hc        1 MOL      0.042933
     36 H16        -1.8410    6.9610   -2.5320 hx        1 MOL      0.042775
     37 H17        -0.6750    6.1810   -3.6120 hx        1 MOL      0.042775
     38 H18        -0.7950    9.0980   -2.9220 hn        1 MOL      0.327235
     39 H19         0.3780    8.3870   -3.8560 hn        1 MOL      0.327235
     40 H20        -1.0580    8.4210   -4.4320 hn        1 MOL      0.327235
     41 N4          3.2780    3.9400    1.6860 n         1 MOL     -0.012303
     42 C13         4.2870    3.7590    2.6920 c3        1 MOL      0.045621
     43 C14         5.6380    3.0530    2.3810 c         1 MOL      0.364135
     44 O6          6.6000    3.0760    3.1970 o         1 MOL     -0.481135
     45 C15         3.6170    3.3250    4.0400 c3        1 MOL     -0.112715
     46 C16         2.9110    2.0090    3.8560 c         1 MOL      0.774897
     47 O7          2.8590    1.4930    2.7150 o         1 MOL     -0.709934
     48 O8          2.4060    1.4070    4.8830 o         1 MOL     -0.709934
     49 H21         2.9700    3.1610    1.1190 hn        1 MOL     -0.074664
     50 H22         4.6310    4.7560    2.9550 h1        1 MOL      0.048531
     51 H23         2.8540    4.0790    4.1970 hc        1 MOL      0.027138
     52 H24         4.3270    3.2870    4.8670 hc        1 MOL      0.027138
     53 N5          5.7580    2.3190    1.2210 n         1 MOL     -0.088388
     54 C17         6.9980    1.7240    0.7030 c3        1 MOL      0.033101
     55 C18         7.4810    0.4450    1.4140 c         1 MOL      0.408776
     56 O9          8.3480    0.4650    2.3270 o         1 MOL     -0.533628
     57 H25         4.9760    2.1290    0.6260 hn        1 MOL      0.077816
     58 H26         7.7700    2.4920    0.7780 h1        1 MOL      0.020109
     59 H27         6.8910    1.5630   -0.3650 h1        1 MOL      0.020109
     60 N6          6.7180   -0.6040    1.2380 n         1 MOL     -0.248467
     61 C19         6.9710   -1.9130    1.8450 c3        1 MOL      0.120603
     62 C20         6.9260   -3.0620    0.7380 c         1 MOL      0.400986
     63 O10         7.1910   -4.1990    1.0720 o         1 MOL     -0.555074
     64 C21         5.9650   -2.1350    2.9880 c3        1 MOL     -0.268405
     65 C22         4.5350   -2.0800    2.5890 c         1 MOL      0.795683
     66 O11         4.1340   -2.2240    1.4540 o         1 MOL     -0.728337
     67 O12         3.6540   -1.8510    3.4860 o         1 MOL     -0.728337
     68 H28         5.9180   -0.4460    0.6450 hn        1 MOL      0.124660
     69 H29         7.9590   -1.8850    2.3110 h1        1 MOL      0.068919
     70 H30         6.3130   -1.4580    3.7790 hc        1 MOL      0.091689
     71 H31         6.2100   -3.1170    3.3950 hc        1 MOL      0.091689
     72 N7          6.6490   -2.8290   -0.5260 n         1 MOL     -0.325166
     73 C23         6.6420   -3.7970   -1.6430 c3        1 MOL      0.045420
     74 C24         5.2820   -4.3120   -2.1150 c         1 MOL      0.446996
     75 O13         5.2730   -5.0170   -3.1100 o         1 MOL     -0.566758
     76 H32         6.3350   -1.8780   -0.6680 hn        1 MOL      0.199611
     77 H33         7.2610   -4.6330   -1.3410 h1        1 MOL      0.067245
     78 H34         7.2110   -3.4370   -2.4950 h1        1 MOL      0.067245
     79 N8          4.2790   -3.9720   -1.3770 n         1 MOL     -0.311932
     80 C25         2.9150   -4.3620   -1.6180 c3        1 MOL     -0.056163
     81 C26         1.8880   -3.2440   -1.4380 c         1 MOL      0.844124
     82 O14         2.0990   -2.2240   -0.7580 o         1 MOL     -0.696467
     83 C27         2.5410   -5.4380   -0.5880 c3        1 MOL      0.253643
     84 C28         3.1090   -6.8310   -0.9760 c3        1 MOL     -0.455616
     85 O15         2.8380   -5.0740    0.7440 oh        1 MOL     -0.557023
     86 H35         4.4030   -3.3380   -0.6020 hn        1 MOL      0.293296
     87 H36         2.8530   -4.7990   -2.6170 h1        1 MOL      0.095374
     88 H37         1.4550   -5.5440   -0.5800 h1        1 MOL      0.047342
     89 H38         3.7270   -5.4110    0.8570 ho        1 MOL      0.412399
     90 H39         3.0370   -7.4560   -0.0850 hc        1 MOL      0.128114
     91 H40         2.5450   -7.1810   -1.8440 hc        1 MOL      0.128114
     92 H41         4.1370   -6.7360   -1.3230 hc        1 MOL      0.128114
     93 N9          0.7270   -3.5100   -2.0770 n         1 MOL     -0.838841
     94 C29        -0.5130   -2.6420   -2.1290 c3        1 MOL      0.217408
     95 C30        -1.5960   -3.3430   -1.2710 c         1 MOL      0.629843
     96 O16        -1.8510   -4.5500   -1.4280 o         1 MOL     -0.580453
     97 C31        -0.9560   -2.3060   -3.5880 c3        1 MOL     -0.024414
     98 C32        -0.0150   -1.2770   -4.3220 c3        1 MOL      0.050078
     99 C33        -2.4410   -1.9260   -3.7320 c3        1 MOL     -0.123776
    100 C34        -0.2960   -1.1590   -5.8110 c3        1 MOL     -0.374147
    101 H42         0.5980   -4.4230   -2.4790 hn        1 MOL      0.336906
    102 H43        -0.2140   -1.7110   -1.6420 h1        1 MOL      0.088436
    103 H44        -0.9280   -3.3170   -3.9980 hc        1 MOL      0.035473
    104 H45         1.0310   -1.5160   -4.1240 hc        1 MOL      0.059567
    105 H46        -0.2130   -0.2960   -3.8710 hc        1 MOL      0.059567
    106 H47        -3.0510   -2.7240   -3.3140 hc        1 MOL      0.023514
    107 H48        -2.5680   -1.0390   -3.1150 hc        1 MOL      0.023514
    108 H49        -2.7640   -1.6230   -4.7260 hc        1 MOL      0.023514
    109 H50        -0.3660   -2.1570   -6.2270 hc        1 MOL      0.098653
    110 H51        -1.2870   -0.6870   -5.8050 hc        1 MOL      0.098653
    111 H52         0.4420   -0.5410   -6.3240 hc        1 MOL      0.098653
    112 N10        -2.2290   -2.5770   -0.3710 n         1 MOL     -0.186636
    113 C35        -3.3760   -2.8900    0.4340 c3        1 MOL     -0.080599
    114 C36        -4.6700   -2.4650   -0.2120 c         1 MOL      0.373924
    115 O17        -4.6900   -1.5660   -1.0810 o         1 MOL     -0.239866
    116 C37        -3.2050   -2.2760    1.8180 c3        1 MOL      0.176266
    117 C38        -2.0520   -2.9320    2.5770 c3        1 MOL     -0.202846
    118 O18        -3.0780   -0.8820    1.7360 oh        1 MOL     -0.534275
    119 H53        -1.9660   -1.6010   -0.4270 hn        1 MOL     -0.134303
    120 H54        -3.5290   -3.9560    0.6020 h1        1 MOL      0.073963
    121 H55        -4.0820   -2.4420    2.4500 h1        1 MOL      0.042355
    122 H56        -2.1580   -0.6820    1.5620 ho        1 MOL      0.378477
    123 H57        -1.9470   -4.0090    2.4810 hc        1 MOL      0.066428
    124 H58        -1.1240   -2.3860    2.3900 hc        1 MOL      0.066428
    125 H59        -2.1730   -2.8870    3.6640 hc        1 MOL      0.066428
    126 N11        -5.8000   -2.9970    0.2650 n         1 MOL     -0.319255
    127 C39        -7.1720   -2.5820   -0.1750 c3        1 MOL     -0.204867
    128 C40        -7.4390   -1.1030   -0.0330 c         1 MOL      0.439606
    129 O19        -8.0430   -0.5160   -0.9290 o         1 MOL     -0.504734
    130 C41        -8.3870   -3.3720    0.5190 c3        1 MOL      0.289828
    131 C42        -8.5720   -4.8180    0.0620 c3        1 MOL     -0.339371
    132 O20        -8.2130   -3.3120    1.9000 oh        1 MOL     -0.648474
    133 H60        -5.8120   -3.5420    1.1100 hn        1 MOL      0.293900
    134 H61        -7.3420   -2.7460   -1.2330 h1        1 MOL      0.151099
    135 H62        -9.3470   -2.9130    0.2570 h1        1 MOL      0.054417
    136 H63        -8.7600   -4.0380    2.1830 ho        1 MOL      0.418624
    137 H64        -7.9040   -5.4020    0.6880 hc        1 MOL      0.098437
    138 H65        -9.5960   -5.1890    0.1890 hc        1 MOL      0.098437
    139 H66        -8.3780   -5.0270   -0.9930 hc        1 MOL      0.098437
    140 N12        -6.8640   -0.4830    0.9620 n         1 MOL     -0.267784
    141 C43        -6.8460    1.0060    1.1780 c3        1 MOL      0.039449
    142 C44        -6.1480    1.7470    0.0870 c         1 MOL      0.314669
    143 O21        -6.6810    2.5910   -0.6580 o         1 MOL     -0.494975
    144 C45        -6.1850    1.3750    2.5410 c3        1 MOL     -0.026529
    145 C46        -7.1180    1.9580    3.5940 c3        1 MOL     -0.127595
    146 C47        -8.2680    1.0310    3.9620 c3        1 MOL     -0.043967
    147 C48        -9.1210    1.7280    5.0160 c3        1 MOL      0.036719
    148 N13        -9.7500    0.8420    5.9990 n4        1 MOL     -0.178305
    149 H67        -6.3490   -1.0260    1.6420 hn        1 MOL      0.248822
    150 H68        -7.8700    1.3930    1.1110 h1        1 MOL      0.089894
    151 H69        -5.4170    2.1410    2.4290 hc        1 MOL      0.053289
    152 H70        -5.5840    0.5930    3.0020 hc        1 MOL      0.053289
    153 H71        -7.4910    2.9660    3.3890 hc        1 MOL      0.068599
    154 H72        -6.5910    2.2290    4.5150 hc        1 MOL      0.068599
    155 H73        -7.9760    0.1460    4.5150 hc        1 MOL      0.031001
    156 H74        -8.8380    0.6240    3.1300 hc        1 MOL      0.031001
    157 H75        -9.8590    2.3360    4.4910 hx        1 MOL      0.072793
    158 H76        -8.5140    2.4720    5.5300 hx        1 MOL      0.072793
    159 H77       -10.3390    1.3260    6.6530 hn        1 MOL      0.231488
    160 H78       -10.3100    0.2330    5.4200 hn        1 MOL      0.231488
    161 H79        -9.2740    0.1570    6.5820 hn        1 MOL      0.231488
    162 N14        -4.9370    1.2810   -0.2830 n         1 MOL     -0.022987
    163 C49        -4.1470    1.7980   -1.4260 c3        1 MOL     -0.164961
    164 C50        -4.7920    1.4630   -2.7650 c         1 MOL      0.469903
    165 O22        -4.7680    2.2590   -3.7310 o         1 MOL     -0.597509
    166 C51        -2.7370    1.1550   -1.3230 c3        1 MOL     -0.017066
    167 C52        -1.8390    1.7890   -0.2490 c3        1 MOL     -0.002645
    168 C53        -0.5720    0.9590    0.1890 c         1 MOL      0.502226
    169 O23        -0.7950   -0.1990    0.5770 o         1 MOL     -0.565704
    170 O24         0.5450    1.4650    0.5100 o         1 MOL     -0.565704
    171 H80        -4.4640    0.5380    0.2180 hn        1 MOL      0.009229
    172 H81        -4.0590    2.8720   -1.2480 h1        1 MOL      0.086194
    173 H82        -2.2650    1.1600   -2.3100 hc        1 MOL      0.091338
    174 H83        -2.9020    0.1360   -0.9820 hc        1 MOL      0.091338
    175 H84        -2.4280    2.0430    0.6300 hc        1 MOL      0.014815
    176 H85        -1.6390    2.8020   -0.6030 hc        1 MOL      0.014815
    177 N15        -5.3350    0.2860   -2.9860 n         1 MOL      0.049080
    178 C54        -5.9700   -0.1540   -4.2370 c3        1 MOL     -0.290975
    179 H86        -6.7320    0.5670   -4.5320 h1        1 MOL      0.105192
    180 H87        -5.2160   -0.2270   -5.0220 h1        1 MOL      0.105192
    181 H88        -6.4320   -1.1300   -4.0870 h1        1 MOL      0.105192
    182 H89        -5.1700   -0.4020   -2.2530 hn        1 MOL      0.021457
    183 Ca1         2.0000   -0.6060    1.4970 Ca        1 MOL      1.763536
    184 O25         0.6180   -0.2420    3.8070 oh        1 MOL     -0.866916
    185 H90         0.9400    0.3790    4.4690 ho        1 MOL      0.403630
    186 H91         0.3430   -1.0020    4.3110 ho        1 MOL      0.403630
    187 O26         1.4130   -3.0510    1.8850 oh        1 MOL     -0.866916
    188 H92         0.9380   -3.5730    2.5290 ho        1 MOL      0.403630
    189 H93         2.0680   -3.6480    1.5280 ho        1 MOL      0.403630
@<TRIPOS>BOND
     1    1    2 1   
     2    1    4 1   
     3    1    5 1   
     4    1    6 1   
     5    2    3 2   
     6    2    7 1   
     7    7    8 1   
     8    7   15 1   
     9    8    9 1   
    10    8   11 1   
    11    8   16 1   
    12    9   10 2   
    13    9   19 1   
    14   11   12 1   
    15   11   17 1   
    16   11   18 1   
    17   12   13 1   
    18   12   14 1   
    19   19   20 1   
    20   19   28 1   
    21   20   21 1   
    22   20   23 1   
    23   20   29 1   
    24   21   22 2   
    25   21   41 1   
    26   23   24 1   
    27   23   30 1   
    28   23   31 1   
    29   24   25 1   
    30   24   32 1   
    31   24   33 1   
    32   25   26 1   
    33   25   34 1   
    34   25   35 1   
    35   26   27 1   
    36   26   36 1   
    37   26   37 1   
    38   27   38 1   
    39   27   39 1   
    40   27   40 1   
    41   41   42 1   
    42   41   49 1   
    43   42   43 1   
    44   42   45 1   
    45   42   50 1   
    46   43   44 2   
    47   43   53 1   
    48   45   46 1   
    49   45   51 1   
    50   45   52 1   
    51   46   47 1   
    52   46   48 1   
    53   53   54 1   
    54   53   57 1   
    55   54   55 1   
    56   54   58 1   
    57   54   59 1   
    58   55   56 2   
    59   55   60 1   
    60   60   61 1   
    61   60   68 1   
    62   61   62 1   
    63   61   64 1   
    64   61   69 1   
    65   62   63 2   
    66   62   72 1   
    67   64   65 1   
    68   64   70 1   
    69   64   71 1   
    70   65   66 1   
    71   65   67 1   
    72   72   73 1   
    73   72   76 1   
    74   73   74 1   
    75   73   77 1   
    76   73   78 1   
    77   74   75 2   
    78   74   79 1   
    79   79   80 1   
    80   79   86 1   
    81   80   81 1   
    82   80   83 1   
    83   80   87 1   
    84   81   82 2   
    85   81   93 1   
    86   83   84 1   
    87   83   85 1   
    88   83   88 1   
    89   84   90 1   
    90   84   91 1   
    91   84   92 1   
    92   85   89 1   
    93   93   94 1   
    94   93  101 1   
    95   94   95 1   
    96   94   97 1   
    97   94  102 1   
    98   95   96 2   
    99   95  112 1   
   100   97   98 1   
   101   97   99 1   
   102   97  103 1   
   103   98  100 1   
   104   98  104 1   
   105   98  105 1   
   106   99  106 1   
   107   99  107 1   
   108   99  108 1   
   109  100  109 1   
   110  100  110 1   
   111  100  111 1   
   112  112  113 1   
   113  112  119 1   
   114  113  114 1   
   115  113  116 1   
   116  113  120 1   
   117  114  115 2   
   118  114  126 1   
   119  116  117 1   
   120  116  118 1   
   121  116  121 1   
   122  117  123 1   
   123  117  124 1   
   124  117  125 1   
   125  118  122 1   
   126  126  127 1   
   127  126  133 1   
   128  127  128 1   
   129  127  130 1   
   130  127  134 1   
   131  128  129 2   
   132  128  140 1   
   133  130  131 1   
   134  130  132 1   
   135  130  135 1   
   136  131  137 1   
   137  131  138 1   
   138  131  139 1   
   139  132  136 1   
   140  140  141 1   
   141  140  149 1   
   142  141  142 1   
   143  141  144 1   
   144  141  150 1   
   145  142  143 2   
   146  142  162 1   
   147  144  145 1   
   148  144  151 1   
   149  144  152 1   
   150  145  146 1   
   151  145  153 1   
   152  145  154 1   
   153  146  147 1   
   154  146  155 1   
   155  146  156 1   
   156  147  148 1   
   157  147  157 1   
   158  147  158 1   
   159  148  159 1   
   160  148  160 1   
   161  148  161 1   
   162  162  163 1   
   163  162  171 1   
   164  163  164 1   
   165  163  166 1   
   166  163  172 1   
   167  164  165 2   
   168  164  177 1   
   169  166  167 1   
   170  166  173 1   
   171  166  174 1   
   172  167  168 1   
   173  167  175 1   
   174  167  176 1   
   175  168  169 1   
   176  168  170 1   
   177  177  178 1   
   178  177  182 1   
   179  178  179 1   
   180  178  180 1   
   181  178  181 1   
   182  184  185 1   
   183  184  186 1   
   184  187  188 1   
   185  187  189 1   
@<TRIPOS>SUBSTRUCTURE
     1 MOL         1 TEMP              0 ****  ****    0 ROOT
