@<TRIPOS>MOLECULE
MOL
  175   173     1     0     0
SMALL
resp


@<TRIPOS>ATOM
      1 C1         -0.8640    4.0500    5.8410 c3        1 MOL     -0.307336
      2 C2         -0.8660    3.5610    4.3500 c         1 MOL      0.759440
      3 O1          0.1890    3.6490    3.6790 o         1 MOL     -0.587558
      4 H1         -1.3260    3.2900    6.4720 hc        1 MOL      0.067423
      5 H2          0.1630    4.2190    6.1670 hc        1 MOL      0.067423
      6 H3         -1.4290    4.9780    5.9200 hc        1 MOL      0.067423
      7 N1         -2.0400    3.0310    3.8980 n         1 MOL     -0.689145
      8 C3         -2.3730    2.6820    2.5090 c3        1 MOL      0.097755
      9 C4         -2.6620    3.9470    1.7510 c         1 MOL      0.612943
     10 O2         -3.4480    4.8430    2.0950 o         1 MOL     -0.608094
     11 C5         -3.5780    1.7820    2.5320 c3        1 MOL     -0.074366
     12 C6         -3.9910    1.0460    1.3050 c         1 MOL      0.857544
     13 O3         -4.7450    0.0740    1.5380 o         1 MOL     -0.754701
     14 O4         -3.8300    1.4630    0.1460 o         1 MOL     -0.754701
     15 H4         -2.7510    2.8080    4.5890 hn        1 MOL      0.333289
     16 H5         -1.5060    2.1370    2.1240 h1        1 MOL      0.065197
     17 H6         -4.4210    2.4000    2.8560 hc        1 MOL      0.001771
     18 H7         -3.3020    1.0310    3.2740 hc        1 MOL      0.001771
     19 N2         -2.0670    4.0310    0.5510 n         1 MOL     -0.279790
     20 C7         -2.2290    5.1270   -0.4040 c3        1 MOL      0.062898
     21 C8         -3.5890    5.1370   -1.1550 c         1 MOL      0.571088
     22 O5         -3.9530    6.1080   -1.7960 o         1 MOL     -0.569239
     23 C9         -1.1170    5.1200   -1.4790 c3        1 MOL     -0.192140
     24 H8         -1.7150    3.1260    0.2790 hn        1 MOL      0.129566
     25 H9         -2.2100    6.0660    0.1590 h1        1 MOL      0.041403
     26 H10        -1.0730    6.0220   -2.0880 hc        1 MOL      0.063762
     27 H11        -0.1560    4.9240   -1.0100 hc        1 MOL      0.063762
     28 H12        -1.3950    4.2680   -2.0980 hc        1 MOL      0.063762
     29 N3         -4.3090    3.9840   -1.1380 n         1 MOL     -0.467352
     30 C10        -5.3620    3.7590   -2.1420 c3        1 MOL      0.077330
     31 C11        -6.6190    2.9380   -1.7580 c         1 MOL      0.371111
     32 O6         -7.5970    2.9310   -2.5380 o         1 MOL     -0.520301
     33 C12        -4.7480    2.9930   -3.3290 c3        1 MOL     -0.126479
     34 C13        -3.9850    1.7640   -2.8320 c         1 MOL      0.833841
     35 O7         -2.7220    1.8400   -2.7410 o         1 MOL     -0.781969
     36 O8         -4.5730    0.6910   -2.7440 o         1 MOL     -0.781969
     37 H13        -3.8790    3.1890   -0.6810 hn        1 MOL      0.193202
     38 H14        -5.6560    4.7240   -2.5510 h1        1 MOL      0.087780
     39 H15        -4.0030    3.6460   -3.7760 hc        1 MOL      0.030501
     40 H16        -5.4670    2.7990   -4.1260 hc        1 MOL      0.030501
     41 N4         -6.5520    2.2060   -0.6310 n         1 MOL     -0.285493
     42 C14        -7.7410    1.5550   -0.0570 c3        1 MOL      0.137396
     43 C15        -8.0950    0.1670   -0.5710 c         1 MOL      0.348419
     44 O9         -9.2240   -0.1260   -0.8330 o         1 MOL     -0.528713
     45 H17        -5.6500    2.1410   -0.1680 hn        1 MOL      0.246408
     46 H18        -8.6200    2.1910    0.0110 h1        1 MOL      0.017118
     47 H19        -7.5470    1.4840    1.0170 h1        1 MOL      0.017118
     48 N5         -7.0260   -0.6460   -0.8250 n         1 MOL     -0.085528
     49 C16        -7.1530   -2.0800   -1.2010 c3        1 MOL     -0.079646
     50 C17        -6.7520   -3.1540   -0.0890 c         1 MOL      0.484011
     51 O10        -6.6850   -4.3760   -0.3370 o         1 MOL     -0.534151
     52 C18        -6.3700   -2.3170   -2.5040 c3        1 MOL     -0.212330
     53 C19        -4.8360   -2.4220   -2.3070 c         1 MOL      0.660963
     54 N6         -4.2640   -3.2400   -3.0870 n         1 MOL     -0.727994
     55 O11        -4.2550   -1.8450   -1.4320 o         1 MOL     -0.515790
     56 H20        -6.1140   -0.2580   -0.6570 hn        1 MOL      0.170236
     57 H21        -8.2050   -2.3580   -1.3540 h1        1 MOL      0.110622
     58 H22        -6.5430   -1.4480   -3.1480 hc        1 MOL      0.088005
     59 H23        -6.7740   -3.1660   -3.0450 hc        1 MOL      0.088005
     60 H24        -4.7420   -3.8060   -3.7750 hn        1 MOL      0.329817
     61 H25        -3.2530   -3.3260   -3.0560 hn        1 MOL      0.329817
     62 N7         -6.6260   -2.6520    1.1730 n         1 MOL     -0.375347
     63 C20        -6.4870   -3.5330    2.3350 c3        1 MOL     -0.193873
     64 C21        -4.9670   -4.0620    2.5460 c         1 MOL      0.475707
     65 O12        -4.6750   -4.8380    3.4890 o         1 MOL     -0.554305
     66 H26        -6.4680   -1.6620    1.2830 hn        1 MOL      0.286921
     67 H27        -7.1390   -4.3820    2.1190 h1        1 MOL      0.133220
     68 H28        -6.8790   -2.9780    3.1790 h1        1 MOL      0.133220
     69 N8         -3.9360   -3.5660    1.7800 n         1 MOL     -0.070353
     70 C22        -2.4940   -3.8780    1.8760 c3        1 MOL     -0.261872
     71 C23        -1.5330   -2.6970    1.5640 c         1 MOL      0.659830
     72 O13        -1.8920   -1.6340    1.0810 o         1 MOL     -0.628762
     73 C24        -2.0420   -5.0160    0.8680 c3        1 MOL      0.368913
     74 C25        -2.4760   -6.4080    1.2510 c3        1 MOL     -0.426433
     75 O14        -2.5110   -4.8030   -0.4120 oh        1 MOL     -0.691779
     76 H29        -4.1060   -2.9450    1.0050 hn        1 MOL      0.155534
     77 H30        -2.3800   -4.1820    2.9210 h1        1 MOL      0.131047
     78 H31        -0.9450   -5.0510    0.8510 h1        1 MOL      0.059719
     79 H32        -2.8470   -5.6450   -0.7330 ho        1 MOL      0.434233
     80 H33        -1.9350   -7.1630    0.6770 hc        1 MOL      0.111516
     81 H34        -2.3030   -6.5780    2.3220 hc        1 MOL      0.111516
     82 H35        -3.5510   -6.4820    1.0810 hc        1 MOL      0.111516
     83 N9         -0.2580   -2.8770    1.9390 n         1 MOL     -0.412443
     84 C26         0.9310   -2.0920    1.6690 c3        1 MOL     -0.156919
     85 C27         1.9510   -2.8690    0.8400 c         1 MOL      0.527948
     86 O15         2.3670   -4.0100    1.1730 o         1 MOL     -0.581839
     87 C28         1.4600   -1.3820    2.9640 c3        1 MOL      0.319786
     88 C29         2.1040   -2.3290    3.9720 c3        1 MOL     -0.132511
     89 C30         0.4330   -0.4920    3.6110 c3        1 MOL     -0.498648
     90 C31         2.5850   -1.6040    5.2720 c3        1 MOL     -0.027772
     91 H36        -0.0590   -3.7550    2.3930 hn        1 MOL      0.242317
     92 H37         0.6750   -1.2640    1.0060 h1        1 MOL      0.101542
     93 H38         2.2400   -0.6880    2.6600 hc        1 MOL     -0.073002
     94 H39         2.9640   -2.7140    3.4200 hc        1 MOL      0.033052
     95 H40         1.4130   -3.1550    4.1420 hc        1 MOL      0.033052
     96 H41        -0.1030    0.0420    2.8180 hc        1 MOL      0.139628
     97 H42        -0.3220   -1.0100    4.1940 hc        1 MOL      0.139628
     98 H43         0.9570    0.2650    4.1840 hc        1 MOL      0.139628
     99 H44         3.0410   -0.6420    5.0630 hc        1 MOL      0.002916
    100 H45         1.7430   -1.4270    5.9390 hc        1 MOL      0.002916
    101 H46         3.2720   -2.2620    5.8220 hc        1 MOL      0.002916
    102 N10         2.2080   -2.3810   -0.3730 n         1 MOL     -0.373543
    103 C32         3.3750   -2.6510   -1.1680 c3        1 MOL      0.105754
    104 C33         4.4410   -1.6850   -0.6030 c         1 MOL      0.257368
    105 O16         4.2810   -0.8550    0.2630 o         1 MOL     -0.267149
    106 C34         3.1060   -2.4700   -2.6670 c3        1 MOL     -0.168833
    107 C35         4.3100   -2.7840   -3.5990 c         1 MOL      0.679809
    108 O17         4.2240   -2.2560   -4.7460 o         1 MOL     -0.700093
    109 O18         5.3220   -3.3990   -3.1930 o         1 MOL     -0.700093
    110 H47         1.8210   -1.4740   -0.6130 hn        1 MOL      0.343668
    111 H48         3.5820   -3.7160   -1.0260 h1        1 MOL      0.078149
    112 H49         2.8490   -1.4200   -2.7680 hc        1 MOL      0.023344
    113 H50         2.2330   -3.0280   -3.0210 hc        1 MOL      0.023344
    114 N11         5.7060   -1.9990   -0.9890 n         1 MOL     -0.440223
    115 C36         6.9030   -1.3320   -0.5300 c3        1 MOL      0.281736
    116 C37         6.8720    0.1660   -0.5750 c         1 MOL      0.492449
    117 O19         7.3090    0.7420    0.4160 o         1 MOL     -0.551893
    118 C38         8.1220   -1.7360   -1.3380 c3        1 MOL     -0.208157
    119 C39         9.4380   -1.2410   -0.8050 ca        1 MOL      0.070184
    120 C40         9.8020   -1.5360    0.5770 ca        1 MOL     -0.197054
    121 C41        10.2200   -0.3280   -1.5960 ca        1 MOL     -0.197054
    122 C42        10.9940   -0.8770    1.0710 ca        1 MOL     -0.102991
    123 C43        11.2980    0.2780   -1.0010 ca        1 MOL     -0.102991
    124 C44        11.7090    0.0350    0.3040 ca        1 MOL     -0.091317
    125 H51         5.8100   -2.8150   -1.5790 hn        1 MOL      0.253212
    126 H52         6.9590   -1.5670    0.5280 h1        1 MOL      0.020602
    127 H53         8.0940   -1.3770   -2.3680 hc        1 MOL      0.087525
    128 H54         8.1730   -2.8260   -1.3500 hc        1 MOL      0.087525
    129 H55         9.1570   -2.1530    1.1870 ha        1 MOL      0.134150
    130 H56         9.7770   -0.0060   -2.5250 ha        1 MOL      0.134150
    131 H57        11.2000   -1.2000    2.0860 ha        1 MOL      0.097104
    132 H58        11.8540    1.0920   -1.4310 ha        1 MOL      0.097104
    133 H59        12.5680    0.5110    0.7590 ha        1 MOL      0.087091
    134 N12         6.3520    0.8340   -1.5840 n         1 MOL     -0.079245
    135 C45         6.3210    2.3090   -1.6370 c3        1 MOL     -0.129197
    136 C46         5.4880    2.9640   -0.5600 c         1 MOL      0.269544
    137 O20         5.7450    4.0750   -0.0950 o         1 MOL     -0.504451
    138 C47         5.7780    2.6540   -3.0140 c3        1 MOL      0.090202
    139 C48         6.1060    1.4720   -3.8430 c3        1 MOL     -0.078606
    140 C49         5.8820    0.3240   -2.8060 c3        1 MOL     -0.070300
    141 H60         7.3610    2.6200   -1.7190 h1        1 MOL      0.096557
    142 H61         4.7010    2.7770   -3.0140 hc        1 MOL      0.007135
    143 H62         6.1430    3.5920   -3.4330 hc        1 MOL      0.007135
    144 H63         5.3700    1.4600   -4.6460 hc        1 MOL      0.032876
    145 H64         7.1050    1.5040   -4.2610 hc        1 MOL      0.032876
    146 H65         4.8090    0.1090   -2.7880 h1        1 MOL      0.072525
    147 H66         6.3900   -0.5440   -3.2250 h1        1 MOL      0.072525
    148 N13         4.5150    2.2300   -0.1070 n         1 MOL     -0.044059
    149 C50         3.6850    2.5400    1.0330 c3        1 MOL     -0.176804
    150 C51         4.3020    2.0490    2.3370 c         1 MOL      0.590278
    151 O21         4.3080    2.8660    3.2290 o         1 MOL     -0.570285
    152 C52         2.3540    1.8410    1.0110 c3        1 MOL      0.196338
    153 C53         1.5930    2.2040   -0.2360 c3        1 MOL     -0.307181
    154 C54         0.3410    1.2850   -0.4080 c         1 MOL      0.845628
    155 O22         0.4690    0.1640   -0.8510 o         1 MOL     -0.784260
    156 O23        -0.7480    1.7940   -0.1630 o         1 MOL     -0.784260
    157 H67         4.3410    1.3300   -0.5430 hn        1 MOL      0.164942
    158 H68         3.6040    3.6360    1.0440 h1        1 MOL      0.121002
    159 H69         1.7650    1.8790    1.9260 hc        1 MOL     -0.003034
    160 H70         2.5050    0.7670    1.0140 hc        1 MOL     -0.003034
    161 H71         2.2170    2.0150   -1.1120 hc        1 MOL      0.052221
    162 H72         1.3120    3.2510   -0.1350 hc        1 MOL      0.052221
    163 N14         5.0300    0.8940    2.4090 n         1 MOL     -0.053968
    164 C55         5.8020    0.6650    3.6030 c3        1 MOL     -0.426856
    165 H73         6.7250    1.2440    3.5560 h1        1 MOL      0.129951
    166 H74         5.2240    0.9740    4.4740 h1        1 MOL      0.129951
    167 H75         6.0430   -0.3950    3.6840 h1        1 MOL      0.129951
    168 H76         4.8290    0.1740    1.7360 hn        1 MOL      0.079438
    169 Ca1        -2.1630   -0.1190   -1.4510 Ca        1 MOL      1.794034
    170 O24        -2.1750   -0.7250   -3.9410 oh        1 MOL     -0.896378
    171 H77        -1.6010   -1.2680   -4.4780 ho        1 MOL      0.425021
    172 H78        -2.7430   -0.2810   -4.5720 ho        1 MOL      0.425021
    173 O25        -1.1630   -2.7390   -1.5640 oh        1 MOL     -0.896378
    174 H79        -0.7500   -3.1190   -2.3400 ho        1 MOL      0.425021
    175 H80        -1.8060   -3.4000   -1.2820 ho        1 MOL      0.425021
@<TRIPOS>BOND
     1    1    2 1   
     2    1    4 1   
     3    1    5 1   
     4    1    6 1   
     5    2    3 2   
     6    2    7 1   
     7    7    8 1   
     8    7   15 1   
     9    8    9 1   
    10    8   11 1   
    11    8   16 1   
    12    9   10 2   
    13    9   19 1   
    14   11   12 1   
    15   11   17 1   
    16   11   18 1   
    17   12   13 1   
    18   12   14 1   
    19   19   20 1   
    20   19   24 1   
    21   20   21 1   
    22   20   23 1   
    23   20   25 1   
    24   21   22 2   
    25   21   29 1   
    26   23   26 1   
    27   23   27 1   
    28   23   28 1   
    29   29   30 1   
    30   29   37 1   
    31   30   31 1   
    32   30   33 1   
    33   30   38 1   
    34   31   32 2   
    35   31   41 1   
    36   33   34 1   
    37   33   39 1   
    38   33   40 1   
    39   34   35 1   
    40   34   36 1   
    41   41   42 1   
    42   41   45 1   
    43   42   43 1   
    44   42   46 1   
    45   42   47 1   
    46   43   44 2   
    47   43   48 1   
    48   48   49 1   
    49   48   56 1   
    50   49   50 1   
    51   49   52 1   
    52   49   57 1   
    53   50   51 2   
    54   50   62 1   
    55   52   53 1   
    56   52   58 1   
    57   52   59 1   
    58   53   54 1   
    59   53   55 2   
    60   54   60 1   
    61   54   61 1   
    62   62   63 1   
    63   62   66 1   
    64   63   64 1   
    65   63   67 1   
    66   63   68 1   
    67   64   65 2   
    68   64   69 1   
    69   69   70 1   
    70   69   76 1   
    71   70   71 1   
    72   70   73 1   
    73   70   77 1   
    74   71   72 2   
    75   71   83 1   
    76   73   74 1   
    77   73   75 1   
    78   73   78 1   
    79   74   80 1   
    80   74   81 1   
    81   74   82 1   
    82   75   79 1   
    83   83   84 1   
    84   83   91 1   
    85   84   85 1   
    86   84   87 1   
    87   84   92 1   
    88   85   86 2   
    89   85  102 1   
    90   87   88 1   
    91   87   89 1   
    92   87   93 1   
    93   88   90 1   
    94   88   94 1   
    95   88   95 1   
    96   89   96 1   
    97   89   97 1   
    98   89   98 1   
    99   90   99 1   
   100   90  100 1   
   101   90  101 1   
   102  102  103 1   
   103  102  110 1   
   104  103  104 1   
   105  103  106 1   
   106  103  111 1   
   107  104  105 2   
   108  104  114 1   
   109  106  107 1   
   110  106  112 1   
   111  106  113 1   
   112  107  108 1   
   113  107  109 1   
   114  114  115 1   
   115  114  125 1   
   116  115  116 1   
   117  115  118 1   
   118  115  126 1   
   119  116  117 2   
   120  116  134 1   
   121  118  119 1   
   122  118  127 1   
   123  118  128 1   
   124  119  120 ar  
   125  119  121 ar  
   126  120  122 ar  
   127  120  129 1   
   128  121  123 ar  
   129  121  130 1   
   130  122  124 ar  
   131  122  131 1   
   132  123  124 ar  
   133  123  132 1   
   134  124  133 1   
   135  134  135 1   
   136  134  140 1   
   137  135  136 1   
   138  135  138 1   
   139  135  141 1   
   140  136  137 2   
   141  136  148 1   
   142  138  139 1   
   143  138  142 1   
   144  138  143 1   
   145  139  140 1   
   146  139  144 1   
   147  139  145 1   
   148  140  146 1   
   149  140  147 1   
   150  148  149 1   
   151  148  157 1   
   152  149  150 1   
   153  149  152 1   
   154  149  158 1   
   155  150  151 2   
   156  150  163 1   
   157  152  153 1   
   158  152  159 1   
   159  152  160 1   
   160  153  154 1   
   161  153  161 1   
   162  153  162 1   
   163  154  155 1   
   164  154  156 1   
   165  163  164 1   
   166  163  168 1   
   167  164  165 1   
   168  164  166 1   
   169  164  167 1   
   170  170  171 1   
   171  170  172 1   
   172  173  174 1   
   173  173  175 1   
@<TRIPOS>SUBSTRUCTURE
     1 MOL         1 TEMP              0 ****  ****    0 ROOT
