@<TRIPOS>MOLECULE
MOL
  175   173     1     0     0
SMALL
resp


@<TRIPOS>ATOM
      1 C1         -0.1340   -3.8670    5.4120 c3        1 MOL     -0.308273
      2 C2          0.5630   -3.9040    4.0450 c         1 MOL      0.737818
      3 O1         -0.1270   -3.9860    3.0720 o         1 MOL     -0.565902
      4 H1          0.0300   -2.8950    5.8760 hc        1 MOL      0.072645
      5 H2         -1.2030   -4.0310    5.2790 hc        1 MOL      0.072645
      6 H3          0.2780   -4.6480    6.0520 hc        1 MOL      0.072645
      7 N1          1.8940   -3.7790    3.9760 n         1 MOL     -0.780281
      8 C3          2.5640   -3.4210    2.7790 c3        1 MOL      0.564652
      9 C4          2.9050   -4.5430    1.7710 c         1 MOL      0.457229
     10 O2          3.7890   -5.3270    2.0780 o         1 MOL     -0.576685
     11 C5          3.8810   -2.5960    3.0980 c3        1 MOL     -0.549681
     12 C6          4.4640   -1.8860    1.9690 c         1 MOL      1.044356
     13 O3          5.5430   -1.2940    2.1240 o         1 MOL     -0.762226
     14 O4          3.8810   -1.8060    0.9210 o         1 MOL     -0.762226
     15 H4          2.3540   -3.6140    4.8640 hn        1 MOL      0.342273
     16 H5          2.0150   -2.6270    2.2680 h1        1 MOL     -0.036252
     17 H6          4.6360   -3.2450    3.5410 hc        1 MOL      0.086596
     18 H7          3.6040   -1.7970    3.7780 hc        1 MOL      0.086596
     19 N2          2.3260   -4.5970    0.5370 n         1 MOL     -0.438402
     20 C7          2.5100   -5.6480   -0.5100 c3        1 MOL      0.298322
     21 C8          3.6180   -5.2440   -1.4790 c         1 MOL      0.313294
     22 O5          3.9090   -5.9790   -2.4220 o         1 MOL     -0.547548
     23 C9          1.1460   -5.9390   -1.1330 c3        1 MOL     -0.297044
     24 H8          1.5120   -4.0220    0.3740 hn        1 MOL      0.245912
     25 H9          2.8060   -6.5640    0.0050 h1        1 MOL      0.025587
     26 H10         1.1520   -6.9670   -1.5050 hc        1 MOL      0.079946
     27 H11         0.3330   -5.7960   -0.4210 hc        1 MOL      0.079946
     28 H12         0.9850   -5.2740   -1.9730 hc        1 MOL      0.079946
     29 N3          4.1580   -4.0100   -1.4330 n         1 MOL     -0.142313
     30 C10         5.0910   -3.3700   -2.5050 c3        1 MOL      0.052190
     31 C11         6.3690   -2.6450   -2.1050 c         1 MOL      0.348724
     32 O6          7.3880   -2.7440   -2.7870 o         1 MOL     -0.562717
     33 C12         4.1730   -2.4570   -3.3890 c3        1 MOL     -0.188343
     34 C13         3.3300   -1.3700   -2.7040 c         1 MOL      0.676818
     35 O7          3.8840   -0.8120   -1.7530 o         1 MOL     -0.696765
     36 O8          2.1330   -1.1470   -2.8880 o         1 MOL     -0.696765
     37 H13         4.0640   -3.4670   -0.5920 hn        1 MOL      0.137428
     38 H14         5.4100   -4.2140   -3.1160 h1        1 MOL      0.083251
     39 H15         3.4980   -3.0950   -3.9530 hc        1 MOL      0.049181
     40 H16         4.7300   -1.8990   -4.1420 hc        1 MOL      0.049181
     41 N4          6.4030   -1.9640   -1.0080 n         1 MOL     -0.012081
     42 C14         7.5300   -1.1350   -0.5400 c3        1 MOL     -0.411043
     43 C15         7.3750    0.3480   -1.0070 c         1 MOL      0.636231
     44 O9          8.2990    1.1620   -0.9080 o         1 MOL     -0.620913
     45 H17         5.5460   -2.0110   -0.4850 hn        1 MOL      0.063488
     46 H18         8.4900   -1.5820   -0.8140 h1        1 MOL      0.172548
     47 H19         7.4550   -1.1130    0.5450 h1        1 MOL      0.172548
     48 N5          6.2800    0.6920   -1.7360 n         1 MOL     -0.333409
     49 C16         6.0420    1.9820   -2.3440 c3        1 MOL     -0.011977
     50 C17         6.1310    3.2540   -1.3950 c         1 MOL      0.417019
     51 O10         6.1860    4.4110   -1.8560 o         1 MOL     -0.547069
     52 C18         4.7420    1.9650   -3.1800 c3        1 MOL     -0.095288
     53 C19         3.4540    2.0190   -2.4010 c         1 MOL      0.765872
     54 N6          2.4030    2.1330   -3.1500 n         1 MOL     -0.647625
     55 O11         3.3320    2.1350   -1.2100 o         1 MOL     -0.723263
     56 H20         5.6890   -0.1040   -1.9070 hn        1 MOL      0.271372
     57 H21         6.8000    2.1060   -3.1180 h1        1 MOL      0.071304
     58 H22         4.6680    1.0960   -3.8420 hc        1 MOL      0.027468
     59 H23         4.8070    2.8600   -3.7840 hc        1 MOL      0.027468
     60 H24         2.5600    2.2200   -4.1470 hn        1 MOL      0.316373
     61 H25         1.5130    2.0710   -2.6800 hn        1 MOL      0.316373
     62 N7          6.0730    3.0940   -0.0860 n         1 MOL     -0.099472
     63 C20         6.1750    4.1600    0.9780 c3        1 MOL     -0.190219
     64 C21         4.8170    4.6460    1.4450 c         1 MOL      0.632437
     65 O12         4.7570    5.6330    2.2040 o         1 MOL     -0.622260
     66 H26         6.0460    2.1180    0.1800 hn        1 MOL      0.191602
     67 H27         6.8610    4.9480    0.6660 h1        1 MOL      0.096232
     68 H28         6.5330    3.6850    1.8930 h1        1 MOL      0.096232
     69 N8          3.6980    4.0130    1.0240 n         1 MOL     -0.202572
     70 C22         2.3540    4.5340    1.0900 c3        1 MOL     -0.149837
     71 C23         1.2330    3.4990    1.2960 c         1 MOL      0.419228
     72 O13         1.3830    2.3870    0.7990 o         1 MOL     -0.436089
     73 C24         1.9810    5.3780   -0.1460 c3        1 MOL      0.634030
     74 C25         2.3870    6.8390    0.0230 c3        1 MOL     -0.322751
     75 O14         2.5280    4.7970   -1.3190 oh        1 MOL     -0.677434
     76 H29         3.8840    3.1310    0.5590 hn        1 MOL      0.077416
     77 H30         2.3180    5.2840    1.8780 h1        1 MOL      0.039842
     78 H31         0.9010    5.2960   -0.2490 h1        1 MOL     -0.096372
     79 H32         2.3780    3.8570   -1.3190 ho        1 MOL      0.389841
     80 H33         3.3920    6.8830    0.4570 hc        1 MOL      0.070710
     81 H34         2.3720    7.4070   -0.9070 hc        1 MOL      0.070710
     82 H35         1.6820    7.3720    0.6550 hc        1 MOL      0.070710
     83 N9          0.1370    3.8280    2.0150 n         1 MOL     -0.396977
     84 C26        -1.0640    2.9640    1.9920 c3        1 MOL      0.015833
     85 C27        -1.7270    3.1380    0.5460 c         1 MOL      0.438635
     86 O15        -2.0320    4.2470    0.0550 o         1 MOL     -0.580870
     87 C28        -2.0440    3.4160    3.0820 c3        1 MOL      0.031492
     88 C29        -1.6250    2.7680    4.4440 c3        1 MOL      0.061888
     89 C30        -3.4940    2.9130    2.8940 c3        1 MOL     -0.231495
     90 C31        -2.0370    3.6130    5.6960 c3        1 MOL     -0.074423
     91 H36         0.0940    4.7940    2.3140 hn        1 MOL      0.273229
     92 H37        -0.7310    1.9310    2.0940 h1        1 MOL     -0.037401
     93 H38        -2.0400    4.5010    3.2030 hc        1 MOL      0.031428
     94 H39        -0.5450    2.7760    4.5440 hc        1 MOL      0.003466
     95 H40        -1.9850    1.7540    4.6500 hc        1 MOL      0.003466
     96 H41        -3.5440    1.8610    3.1750 hc        1 MOL      0.049322
     97 H42        -4.0950    3.4050    3.6650 hc        1 MOL      0.049322
     98 H43        -3.9010    3.0670    1.8940 hc        1 MOL      0.049322
     99 H44        -1.5460    4.5780    5.5200 hc        1 MOL      0.008557
    100 H45        -3.1030    3.6000    5.9210 hc        1 MOL      0.008557
    101 H46        -1.5930    3.2600    6.6240 hc        1 MOL      0.008557
    102 N10        -1.9540    2.0000   -0.0410 n         1 MOL     -0.097545
    103 C32        -2.7970    1.8440   -1.1930 c3        1 MOL      0.194749
    104 C33        -4.2000    1.4130   -0.7790 c         1 MOL      0.301034
    105 O16        -4.4390    0.8780    0.3350 o         1 MOL     -0.278650
    106 C34        -2.1830    0.8210   -2.1030 c3        1 MOL     -0.392670
    107 C35        -0.7480    1.1020   -2.4660 c         1 MOL      0.724197
    108 O17         0.1200    0.9800   -1.6160 o         1 MOL     -0.680658
    109 O18        -0.4240    1.5910   -3.5780 o         1 MOL     -0.680658
    110 H47        -1.6970    1.1490    0.4530 hn        1 MOL      0.249316
    111 H48        -2.8630    2.8050   -1.6970 h1        1 MOL      0.042274
    112 H49        -2.8000    0.8360   -3.0050 hc        1 MOL      0.093408
    113 H50        -2.3430   -0.2230   -1.8300 hc        1 MOL      0.093408
    114 N11        -5.2160    1.4480   -1.6710 n         1 MOL     -0.550260
    115 C36        -6.6160    1.1090   -1.2580 c3        1 MOL      0.230325
    116 C37        -6.8020   -0.3860   -1.0760 c         1 MOL      0.406633
    117 O19        -7.3890   -0.7090   -0.0320 o         1 MOL     -0.477225
    118 C38        -7.5760    1.7570   -2.3430 c3        1 MOL     -0.134209
    119 C39        -9.0190    1.5390   -2.1740 ca        1 MOL      0.129983
    120 C40        -9.6670    1.9820   -1.0030 ca        1 MOL     -0.232701
    121 C41        -9.7410    0.7470   -3.0500 ca        1 MOL     -0.232701
    122 C42       -11.0160    1.7600   -0.7260 ca        1 MOL     -0.024492
    123 C43       -11.1000    0.4530   -2.7780 ca        1 MOL     -0.024492
    124 C44       -11.7200    0.9890   -1.6360 ca        1 MOL     -0.185172
    125 H51        -5.1200    1.8520   -2.5970 hn        1 MOL      0.320861
    126 H52        -6.9310    1.6240   -0.3480 h1        1 MOL      0.077866
    127 H53        -7.1950    1.3800   -3.2880 hc        1 MOL      0.043432
    128 H54        -7.3850    2.8310   -2.3590 hc        1 MOL      0.043432
    129 H55        -9.2400    2.7820   -0.4200 ha        1 MOL      0.128026
    130 H56        -9.2900    0.3000   -3.9260 ha        1 MOL      0.128026
    131 H57       -11.5290    2.3470    0.0250 ha        1 MOL      0.093346
    132 H58       -11.6620   -0.2120   -3.4230 ha        1 MOL      0.093346
    133 H59       -12.7450    0.7500   -1.4120 ha        1 MOL      0.108617
    134 N12        -6.2720   -1.3360   -1.8600 n         1 MOL     -0.151298
    135 C45        -6.1520   -2.7510   -1.4870 c3        1 MOL     -0.023373
    136 C46        -5.6130   -2.9710   -0.0680 c         1 MOL      0.271609
    137 O20        -6.1360   -3.7810    0.6990 o         1 MOL     -0.505300
    138 C47        -5.2630   -3.3290   -2.5600 c3        1 MOL      0.058925
    139 C48        -5.4570   -2.4530   -3.7470 c3        1 MOL     -0.040994
    140 C49        -5.5660   -1.1510   -3.1030 c3        1 MOL     -0.019178
    141 H60        -7.1400   -3.2090   -1.5270 h1        1 MOL      0.076930
    142 H61        -4.2160   -3.2900   -2.2540 hc        1 MOL      0.018653
    143 H62        -5.3890   -4.3850   -2.7880 hc        1 MOL      0.018653
    144 H63        -4.6420   -2.4420   -4.4650 hc        1 MOL      0.027226
    145 H64        -6.3930   -2.7270   -4.2290 hc        1 MOL      0.027226
    146 H65        -4.6110   -0.6430   -3.0070 h1        1 MOL      0.028530
    147 H66        -6.0370   -0.3850   -3.7310 h1        1 MOL      0.028530
    148 N13        -4.7410   -2.1230    0.4730 n         1 MOL     -0.035874
    149 C50        -4.0760   -2.3060    1.7870 c3        1 MOL     -0.058858
    150 C51        -5.0060   -1.6360    2.8210 c         1 MOL      0.454170
    151 O21        -5.1270   -2.0920    3.9640 o         1 MOL     -0.594871
    152 C52        -2.6360   -1.6580    1.6790 c3        1 MOL     -0.033691
    153 C53        -1.7030   -2.2120    0.6070 c3        1 MOL     -0.201077
    154 C54        -0.2760   -1.6500    0.6210 c         1 MOL      0.630713
    155 O22        -0.1510   -0.4190    0.9830 o         1 MOL     -0.652637
    156 O23         0.7150   -2.1710    0.1730 o         1 MOL     -0.652637
    157 H67        -4.2950   -1.5160   -0.1930 hn        1 MOL      0.131506
    158 H68        -4.0550   -3.3750    1.9990 h1        1 MOL      0.112130
    159 H69        -2.2250   -1.8660    2.6720 hc        1 MOL      0.022233
    160 H70        -2.7090   -0.6050    1.4010 hc        1 MOL      0.022233
    161 H71        -2.1350   -1.8510   -0.3220 hc        1 MOL      0.070757
    162 H72        -1.7170   -3.3010    0.6520 hc        1 MOL      0.070757
    163 N14        -5.6970   -0.6000    2.4900 n         1 MOL      0.044413
    164 C55        -6.7780    0.0850    3.2810 c3        1 MOL     -0.257588
    165 H73        -6.3390    0.5620    4.1570 h1        1 MOL      0.096290
    166 H74        -7.2610    0.8400    2.6600 h1        1 MOL      0.096290
    167 H75        -7.5170   -0.6500    3.6000 h1        1 MOL      0.096290
    168 H76        -5.4430   -0.1600    1.6190 hn        1 MOL     -0.050293
    169 Ca1         2.1470   -0.0000   -0.1000 Ca        1 MOL      1.733371
    170 O24         4.6640    1.0130    1.5190 oh        1 MOL     -0.774251
    171 H77         4.3950    1.2330    2.4040 ho        1 MOL      0.368210
    172 H78         5.0140    0.1230    1.5780 ho        1 MOL      0.368210
    173 O25         1.8350    0.0390    2.6310 oh        1 MOL     -0.774251
    174 H79         1.9280   -0.1050    3.5630 ho        1 MOL      0.368210
    175 H80         0.8970   -0.0720    2.4620 ho        1 MOL      0.368210
@<TRIPOS>BOND
     1    1    2 1   
     2    1    4 1   
     3    1    5 1   
     4    1    6 1   
     5    2    3 2   
     6    2    7 1   
     7    7    8 1   
     8    7   15 1   
     9    8    9 1   
    10    8   11 1   
    11    8   16 1   
    12    9   10 2   
    13    9   19 1   
    14   11   12 1   
    15   11   17 1   
    16   11   18 1   
    17   12   13 1   
    18   12   14 1   
    19   19   20 1   
    20   19   24 1   
    21   20   21 1   
    22   20   23 1   
    23   20   25 1   
    24   21   22 2   
    25   21   29 1   
    26   23   26 1   
    27   23   27 1   
    28   23   28 1   
    29   29   30 1   
    30   29   37 1   
    31   30   31 1   
    32   30   33 1   
    33   30   38 1   
    34   31   32 2   
    35   31   41 1   
    36   33   34 1   
    37   33   39 1   
    38   33   40 1   
    39   34   35 1   
    40   34   36 1   
    41   41   42 1   
    42   41   45 1   
    43   42   43 1   
    44   42   46 1   
    45   42   47 1   
    46   43   44 2   
    47   43   48 1   
    48   48   49 1   
    49   48   56 1   
    50   49   50 1   
    51   49   52 1   
    52   49   57 1   
    53   50   51 2   
    54   50   62 1   
    55   52   53 1   
    56   52   58 1   
    57   52   59 1   
    58   53   54 1   
    59   53   55 2   
    60   54   60 1   
    61   54   61 1   
    62   62   63 1   
    63   62   66 1   
    64   63   64 1   
    65   63   67 1   
    66   63   68 1   
    67   64   65 2   
    68   64   69 1   
    69   69   70 1   
    70   69   76 1   
    71   70   71 1   
    72   70   73 1   
    73   70   77 1   
    74   71   72 2   
    75   71   83 1   
    76   73   74 1   
    77   73   75 1   
    78   73   78 1   
    79   74   80 1   
    80   74   81 1   
    81   74   82 1   
    82   75   79 1   
    83   83   84 1   
    84   83   91 1   
    85   84   85 1   
    86   84   87 1   
    87   84   92 1   
    88   85   86 2   
    89   85  102 1   
    90   87   88 1   
    91   87   89 1   
    92   87   93 1   
    93   88   90 1   
    94   88   94 1   
    95   88   95 1   
    96   89   96 1   
    97   89   97 1   
    98   89   98 1   
    99   90   99 1   
   100   90  100 1   
   101   90  101 1   
   102  102  103 1   
   103  102  110 1   
   104  103  104 1   
   105  103  106 1   
   106  103  111 1   
   107  104  105 2   
   108  104  114 1   
   109  106  107 1   
   110  106  112 1   
   111  106  113 1   
   112  107  108 1   
   113  107  109 1   
   114  114  115 1   
   115  114  125 1   
   116  115  116 1   
   117  115  118 1   
   118  115  126 1   
   119  116  117 2   
   120  116  134 1   
   121  118  119 1   
   122  118  127 1   
   123  118  128 1   
   124  119  120 ar  
   125  119  121 ar  
   126  120  122 ar  
   127  120  129 1   
   128  121  123 ar  
   129  121  130 1   
   130  122  124 ar  
   131  122  131 1   
   132  123  124 ar  
   133  123  132 1   
   134  124  133 1   
   135  134  135 1   
   136  134  140 1   
   137  135  136 1   
   138  135  138 1   
   139  135  141 1   
   140  136  137 2   
   141  136  148 1   
   142  138  139 1   
   143  138  142 1   
   144  138  143 1   
   145  139  140 1   
   146  139  144 1   
   147  139  145 1   
   148  140  146 1   
   149  140  147 1   
   150  148  149 1   
   151  148  157 1   
   152  149  150 1   
   153  149  152 1   
   154  149  158 1   
   155  150  151 2   
   156  150  163 1   
   157  152  153 1   
   158  152  159 1   
   159  152  160 1   
   160  153  154 1   
   161  153  161 1   
   162  153  162 1   
   163  154  155 1   
   164  154  156 1   
   165  163  164 1   
   166  163  168 1   
   167  164  165 1   
   168  164  166 1   
   169  164  167 1   
   170  170  171 1   
   171  170  172 1   
   172  173  174 1   
   173  173  175 1   
@<TRIPOS>SUBSTRUCTURE
     1 MOL         1 TEMP              0 ****  ****    0 ROOT
