@<TRIPOS>MOLECULE
MOL
  175   173     1     0     0
SMALL
resp


@<TRIPOS>ATOM
      1 C1          0.9180    4.2860    5.2960 c3        1 MOL     -0.433628
      2 C2          0.4380    4.1720    3.8120 c         1 MOL      0.627883
      3 O1          1.1750    4.2820    2.7930 o         1 MOL     -0.542368
      4 H1          1.4930    5.2040    5.4210 hc        1 MOL      0.113055
      5 H2          0.0530    4.3070    5.9570 hc        1 MOL      0.113055
      6 H3          1.5440    3.4290    5.5430 hc        1 MOL      0.113055
      7 N1         -0.8160    3.8160    3.6460 n         1 MOL     -0.452012
      8 C3         -1.5320    3.6230    2.4110 c3        1 MOL      0.042377
      9 C4         -1.5980    4.7590    1.3930 c         1 MOL      0.546877
     10 O2         -1.8160    5.8800    1.7930 o         1 MOL     -0.566516
     11 C5         -2.9490    3.3310    2.8670 c3        1 MOL     -0.282120
     12 C6         -3.8520    2.5150    1.9310 c         1 MOL      0.809468
     13 O3         -3.4440    2.1140    0.8180 o         1 MOL     -0.714933
     14 O4         -5.0080    2.1990    2.2460 o         1 MOL     -0.714933
     15 H4         -1.1940    3.5270    4.5320 hn        1 MOL      0.281755
     16 H5         -1.0940    2.7670    1.8830 h1        1 MOL      0.082649
     17 H6         -3.5810    4.1450    3.2040 hc        1 MOL      0.061613
     18 H7         -2.9840    2.7240    3.7750 hc        1 MOL      0.061613
     19 N2         -1.5400    4.4440    0.0940 n         1 MOL     -0.460381
     20 C7         -1.9230    5.3710   -0.9860 c3        1 MOL      0.431952
     21 C8         -3.1380    5.0880   -1.8580 c         1 MOL      0.362221
     22 O5         -3.4570    5.9230   -2.7570 o         1 MOL     -0.547681
     23 C9         -0.7280    5.3800   -1.9600 c3        1 MOL     -0.318127
     24 H8         -1.1710    3.5230   -0.0900 hn        1 MOL      0.320717
     25 H9         -2.0770    6.3770   -0.5950 h1        1 MOL     -0.019778
     26 H10         0.1570    5.4260   -1.3260 hc        1 MOL      0.072542
     27 H11        -0.6370    4.5670   -2.6850 hc        1 MOL      0.072542
     28 H12        -0.9190    6.3030   -2.5120 hc        1 MOL      0.072542
     29 N3         -3.7890    3.9270   -1.6490 n         1 MOL     -0.412003
     30 C10        -4.7750    3.4330   -2.6220 c3        1 MOL      0.253345
     31 C11        -6.0950    2.8260   -2.1160 c         1 MOL      0.253405
     32 O6         -6.9960    2.6450   -2.8790 o         1 MOL     -0.500540
     33 C12        -4.1530    2.4670   -3.5990 c3        1 MOL     -0.258998
     34 C13        -3.4220    1.3790   -2.8520 c         1 MOL      0.763435
     35 O7         -2.2800    1.0940   -3.2220 o         1 MOL     -0.704076
     36 O8         -3.8110    0.8780   -1.7630 o         1 MOL     -0.704076
     37 H13        -3.4390    3.3370   -0.9150 hn        1 MOL      0.195384
     38 H14        -5.0120    4.3350   -3.1760 h1        1 MOL      0.049257
     39 H15        -3.4410    2.9600   -4.2660 hc        1 MOL      0.060313
     40 H16        -4.8960    1.9290   -4.1850 hc        1 MOL      0.060313
     41 N4         -6.1500    2.2630   -0.8840 n         1 MOL     -0.049936
     42 C14        -7.4000    1.6920   -0.2860 c3        1 MOL     -0.320053
     43 C15        -7.5940    0.2290   -0.7960 c         1 MOL      0.525378
     44 O9         -8.7450   -0.1770   -0.9210 o         1 MOL     -0.609612
     45 H17        -5.3830    2.3010   -0.2290 hn        1 MOL      0.093745
     46 H18        -8.2350    2.3340   -0.5900 h1        1 MOL      0.138238
     47 H19        -7.2600    1.6980    0.7930 h1        1 MOL      0.138238
     48 N5         -6.5210   -0.4860   -1.0960 n         1 MOL     -0.130426
     49 C16        -6.4730   -1.8160   -1.7170 c3        1 MOL     -0.139457
     50 C17        -6.3060   -2.9970   -0.7370 c         1 MOL      0.376954
     51 O10        -6.1040   -4.1690   -1.1240 o         1 MOL     -0.478623
     52 C18        -5.3560   -1.8950   -2.8560 c3        1 MOL     -0.114251
     53 C19        -3.9080   -1.9730   -2.4010 c         1 MOL      0.454888
     54 N6         -2.9150   -2.1200   -3.2150 n         1 MOL     -0.551214
     55 O11        -3.6840   -1.8690   -1.2150 o         1 MOL     -0.320101
     56 H20        -5.6530   -0.0630   -0.7850 hn        1 MOL      0.222242
     57 H21        -7.4130   -1.9140   -2.2650 h1        1 MOL      0.143952
     58 H22        -5.3670   -1.0670   -3.5660 hc        1 MOL      0.041617
     59 H23        -5.5030   -2.8540   -3.3410 hc        1 MOL      0.041617
     60 H24        -3.0840   -2.1990   -4.2070 hn        1 MOL      0.316191
     61 H25        -2.0040   -2.2410   -2.8170 hn        1 MOL      0.316191
     62 N7         -6.4070   -2.7140    0.5460 n         1 MOL     -0.167692
     63 C20        -6.4960   -3.7750    1.5810 c3        1 MOL     -0.316493
     64 C21        -5.1790   -4.5660    1.6990 c         1 MOL      0.525830
     65 O12        -5.1310   -5.6240    2.3200 o         1 MOL     -0.549003
     66 H26        -6.3830   -1.7270    0.7590 hn        1 MOL      0.159228
     67 H27        -7.2800   -4.5040    1.3910 h1        1 MOL      0.142388
     68 H28        -6.6060   -3.2730    2.5390 h1        1 MOL      0.142388
     69 N8         -4.0750   -3.9830    1.0940 n         1 MOL     -0.069101
     70 C22        -2.7460   -4.5010    1.2880 c3        1 MOL     -0.530848
     71 C23        -1.6630   -3.4250    1.4090 c         1 MOL      0.823123
     72 O13        -1.8190   -2.3260    0.9760 o         1 MOL     -0.723937
     73 C24        -2.4240   -5.2740    0.0910 c3        1 MOL      0.475680
     74 C25        -3.4110   -6.3610   -0.3620 c3        1 MOL     -0.298783
     75 O14        -2.3910   -4.5100   -1.1000 oh        1 MOL     -0.577704
     76 H29        -4.1460   -3.0520    0.7050 hn        1 MOL      0.172931
     77 H30        -2.7440   -5.1490    2.1610 h1        1 MOL      0.145676
     78 H31        -1.3970   -5.6360    0.1830 h1        1 MOL     -0.025515
     79 H32        -2.6020   -3.5870   -0.9600 ho        1 MOL      0.256638
     80 H33        -3.5790   -7.0530    0.4680 hc        1 MOL      0.069389
     81 H34        -4.3420   -5.9880   -0.7940 hc        1 MOL      0.069389
     82 H35        -2.9900   -7.0700   -1.0580 hc        1 MOL      0.069389
     83 N9         -0.5940   -3.8020    2.0400 n         1 MOL     -0.470253
     84 C26         0.6490   -2.9260    2.0200 c3        1 MOL     -0.034206
     85 C27         1.4240   -3.2710    0.7810 c         1 MOL      0.569688
     86 O15         1.9030   -4.3550    0.5340 o         1 MOL     -0.595324
     87 C28         1.5390   -3.1320    3.3430 c3        1 MOL     -0.022783
     88 C29         0.7940   -2.4290    4.5000 c3        1 MOL      0.207720
     89 C30         2.9200   -2.5310    3.1970 c3        1 MOL     -0.039471
     90 C31         1.6270   -2.6280    5.8190 c3        1 MOL     -0.154933
     91 H36        -0.5470   -4.6940    2.5120 hn        1 MOL      0.282227
     92 H37         0.3830   -1.8720    2.0230 h1        1 MOL      0.136811
     93 H38         1.6610   -4.2050    3.5350 hc        1 MOL      0.026930
     94 H39        -0.2210   -2.8310    4.5230 hc        1 MOL     -0.072155
     95 H40         0.5670   -1.3940    4.2540 hc        1 MOL     -0.072155
     96 H41         2.8990   -1.4880    2.8670 hc        1 MOL      0.008184
     97 H42         3.4980   -2.6590    4.1120 hc        1 MOL      0.008184
     98 H43         3.4470   -3.1520    2.4800 hc        1 MOL      0.008184
     99 H44         1.7430   -3.6940    5.9820 hc        1 MOL      0.025980
    100 H45         2.5580   -2.0640    5.8150 hc        1 MOL      0.025980
    101 H46         1.0320   -2.2170    6.6430 hc        1 MOL      0.025980
    102 N10         1.6370   -2.2190   -0.0390 n         1 MOL     -0.199647
    103 C32         2.5150   -2.2600   -1.1610 c3        1 MOL      0.025729
    104 C33         3.9510   -1.7570   -0.7830 c         1 MOL      0.404847
    105 O16         4.1180   -1.1910    0.2960 o         1 MOL     -0.367614
    106 C34         1.8910   -1.3840   -2.2370 c3        1 MOL     -0.172147
    107 C35         0.4210   -1.6130   -2.5370 c         1 MOL      0.653533
    108 O17        -0.4200   -1.2870   -1.6690 o         1 MOL     -0.658329
    109 O18         0.0390   -2.0050   -3.6960 o         1 MOL     -0.658329
    110 H47         1.1310   -1.3520    0.0720 hn        1 MOL      0.158463
    111 H48         2.6520   -3.2630   -1.5520 h1        1 MOL      0.057729
    112 H49         2.4320   -1.5200   -3.1820 hc        1 MOL      0.032992
    113 H50         1.9990   -0.3720   -1.8470 hc        1 MOL      0.032992
    114 N11         4.9290   -1.8790   -1.6270 n         1 MOL     -0.512265
    115 C36         6.3820   -1.6200   -1.4500 c3        1 MOL      0.242033
    116 C37         6.7730   -0.1370   -1.1310 c         1 MOL      0.311740
    117 O19         7.5780    0.1290   -0.2480 o         1 MOL     -0.513540
    118 C38         7.1570   -2.2990   -2.5890 c3        1 MOL     -0.145277
    119 C39         8.6590   -2.1580   -2.3550 ca        1 MOL      0.156550
    120 C40         9.3230   -2.9260   -1.4250 ca        1 MOL     -0.249099
    121 C41         9.3710   -1.1980   -3.0830 ca        1 MOL     -0.249099
    122 C42        10.6880   -2.6580   -1.1580 ca        1 MOL     -0.003027
    123 C43        10.7400   -0.9070   -2.8330 ca        1 MOL     -0.003027
    124 C44        11.3700   -1.7000   -1.8850 ca        1 MOL     -0.221851
    125 H51         4.6800   -2.5050   -2.3830 hn        1 MOL      0.293409
    126 H52         6.6000   -2.1250   -0.5090 h1        1 MOL      0.052140
    127 H53         6.9870   -1.7170   -3.4960 hc        1 MOL      0.055833
    128 H54         6.8050   -3.3090   -2.7800 hc        1 MOL      0.055833
    129 H55         8.8400   -3.6960   -0.8400 ha        1 MOL      0.129028
    130 H56         8.8530   -0.6640   -3.8730 ha        1 MOL      0.129028
    131 H57        11.2320   -3.2970   -0.4810 ha        1 MOL      0.091840
    132 H58        11.2170   -0.0310   -3.2350 ha        1 MOL      0.091840
    133 H59        12.3640   -1.4700   -1.5290 ha        1 MOL      0.117848
    134 N12         6.3070    0.9470   -1.7080 n         1 MOL      0.010683
    135 C45         6.6970    2.3170   -1.2660 c3        1 MOL     -0.066652
    136 C46         5.9240    2.7440    0.0370 c         1 MOL      0.449185
    137 O20         6.3540    3.7120    0.6040 o         1 MOL     -0.521672
    138 C47         6.3540    3.2560   -2.4420 c3        1 MOL     -0.318185
    139 C48         5.1260    2.5150   -3.0250 c3        1 MOL      0.095427
    140 C49         5.4980    1.0340   -2.8840 c3        1 MOL     -0.028789
    141 H60         7.7570    2.2850   -1.0260 h1        1 MOL      0.114927
    142 H61         6.0870    4.2240   -2.0330 hc        1 MOL      0.113593
    143 H62         7.1560    3.2590   -3.1790 hc        1 MOL      0.113593
    144 H63         4.2840    2.5880   -2.3490 hc        1 MOL      0.009562
    145 H64         4.9120    2.7410   -4.0690 hc        1 MOL      0.009562
    146 H65         4.5800    0.4650   -2.6890 h1        1 MOL      0.010110
    147 H66         5.9440    0.6930   -3.8190 h1        1 MOL      0.010110
    148 N13         4.8840    2.0480    0.4780 n         1 MOL     -0.178495
    149 C50         4.1530    2.2200    1.7920 c3        1 MOL      0.016975
    150 C51         4.9030    1.6160    2.9950 c         1 MOL      0.381050
    151 O21         5.2890    2.3560    3.9180 o         1 MOL     -0.526054
    152 C52         2.7110    1.6550    1.7050 c3        1 MOL      0.027487
    153 C53         1.8920    1.9170    0.4150 c3        1 MOL     -0.025411
    154 C54         0.5600    1.2500    0.3730 c         1 MOL      0.761530
    155 O22        -0.2870    1.8450   -0.2680 o         1 MOL     -0.734165
    156 O23         0.3250    0.1720    0.9340 o         1 MOL     -0.734165
    157 H67         4.6610    1.2580   -0.1100 hn        1 MOL      0.214054
    158 H68         4.0560    3.2750    2.0200 h1        1 MOL      0.072523
    159 H69         2.1180    2.0450    2.5380 hc        1 MOL     -0.013316
    160 H70         2.7320    0.5810    1.8960 hc        1 MOL     -0.013316
    161 H71         2.5680    1.5450   -0.3600 hc        1 MOL     -0.007803
    162 H72         1.7030    2.9730    0.2580 hc        1 MOL     -0.007803
    163 N14         5.3610    0.3920    2.7670 n         1 MOL     -0.138910
    164 C55         6.3430   -0.3830    3.5930 c3        1 MOL     -0.029429
    165 H73         6.6320    0.2070    4.4640 h1        1 MOL      0.042740
    166 H74         5.8850   -1.3160    3.9240 h1        1 MOL      0.042740
    167 H75         7.2270   -0.6040    2.9960 h1        1 MOL      0.042740
    168 H76         4.9670   -0.1020    1.9870 hn        1 MOL      0.081977
    169 Ca1        -2.1350   -0.0450   -0.1040 Ca        1 MOL      1.675706
    170 O24        -1.9350    0.2630    2.4810 oh        1 MOL     -0.829682
    171 H77        -2.1240    0.4860    3.3900 ho        1 MOL      0.406190
    172 H78        -1.0030    0.0400    2.4740 ho        1 MOL      0.406190
    173 O25        -4.7920   -0.4530    1.3380 oh        1 MOL     -0.829682
    174 H79        -4.7130    0.5080    1.2720 ho        1 MOL      0.406190
    175 H80        -5.4230   -0.5910    2.0410 ho        1 MOL      0.406190
@<TRIPOS>BOND
     1    1    2 1   
     2    1    4 1   
     3    1    5 1   
     4    1    6 1   
     5    2    3 2   
     6    2    7 1   
     7    7    8 1   
     8    7   15 1   
     9    8    9 1   
    10    8   11 1   
    11    8   16 1   
    12    9   10 2   
    13    9   19 1   
    14   11   12 1   
    15   11   17 1   
    16   11   18 1   
    17   12   13 1   
    18   12   14 1   
    19   19   20 1   
    20   19   24 1   
    21   20   21 1   
    22   20   23 1   
    23   20   25 1   
    24   21   22 2   
    25   21   29 1   
    26   23   26 1   
    27   23   27 1   
    28   23   28 1   
    29   29   30 1   
    30   29   37 1   
    31   30   31 1   
    32   30   33 1   
    33   30   38 1   
    34   31   32 2   
    35   31   41 1   
    36   33   34 1   
    37   33   39 1   
    38   33   40 1   
    39   34   35 1   
    40   34   36 1   
    41   41   42 1   
    42   41   45 1   
    43   42   43 1   
    44   42   46 1   
    45   42   47 1   
    46   43   44 2   
    47   43   48 1   
    48   48   49 1   
    49   48   56 1   
    50   49   50 1   
    51   49   52 1   
    52   49   57 1   
    53   50   51 2   
    54   50   62 1   
    55   52   53 1   
    56   52   58 1   
    57   52   59 1   
    58   53   54 1   
    59   53   55 2   
    60   54   60 1   
    61   54   61 1   
    62   62   63 1   
    63   62   66 1   
    64   63   64 1   
    65   63   67 1   
    66   63   68 1   
    67   64   65 2   
    68   64   69 1   
    69   69   70 1   
    70   69   76 1   
    71   70   71 1   
    72   70   73 1   
    73   70   77 1   
    74   71   72 2   
    75   71   83 1   
    76   73   74 1   
    77   73   75 1   
    78   73   78 1   
    79   74   80 1   
    80   74   81 1   
    81   74   82 1   
    82   75   79 1   
    83   83   84 1   
    84   83   91 1   
    85   84   85 1   
    86   84   87 1   
    87   84   92 1   
    88   85   86 2   
    89   85  102 1   
    90   87   88 1   
    91   87   89 1   
    92   87   93 1   
    93   88   90 1   
    94   88   94 1   
    95   88   95 1   
    96   89   96 1   
    97   89   97 1   
    98   89   98 1   
    99   90   99 1   
   100   90  100 1   
   101   90  101 1   
   102  102  103 1   
   103  102  110 1   
   104  103  104 1   
   105  103  106 1   
   106  103  111 1   
   107  104  105 2   
   108  104  114 1   
   109  106  107 1   
   110  106  112 1   
   111  106  113 1   
   112  107  108 1   
   113  107  109 1   
   114  114  115 1   
   115  114  125 1   
   116  115  116 1   
   117  115  118 1   
   118  115  126 1   
   119  116  117 2   
   120  116  134 1   
   121  118  119 1   
   122  118  127 1   
   123  118  128 1   
   124  119  120 ar  
   125  119  121 ar  
   126  120  122 ar  
   127  120  129 1   
   128  121  123 ar  
   129  121  130 1   
   130  122  124 ar  
   131  122  131 1   
   132  123  124 ar  
   133  123  132 1   
   134  124  133 1   
   135  134  135 1   
   136  134  140 1   
   137  135  136 1   
   138  135  138 1   
   139  135  141 1   
   140  136  137 2   
   141  136  148 1   
   142  138  139 1   
   143  138  142 1   
   144  138  143 1   
   145  139  140 1   
   146  139  144 1   
   147  139  145 1   
   148  140  146 1   
   149  140  147 1   
   150  148  149 1   
   151  148  157 1   
   152  149  150 1   
   153  149  152 1   
   154  149  158 1   
   155  150  151 2   
   156  150  163 1   
   157  152  153 1   
   158  152  159 1   
   159  152  160 1   
   160  153  154 1   
   161  153  161 1   
   162  153  162 1   
   163  154  155 1   
   164  154  156 1   
   165  163  164 1   
   166  163  168 1   
   167  164  165 1   
   168  164  166 1   
   169  164  167 1   
   170  170  171 1   
   171  170  172 1   
   172  173  174 1   
   173  173  175 1   
@<TRIPOS>SUBSTRUCTURE
     1 MOL         1 TEMP              0 ****  ****    0 ROOT
