@<TRIPOS>MOLECULE
MOL
  178   175     1     0     0
SMALL
resp


@<TRIPOS>ATOM
      1 C1         -0.6290    2.0210    6.2520 c3        1 MOL     -0.415657
      2 C2         -0.7710    2.0610    4.7520 c         1 MOL      0.744552
      3 O1          0.0980    2.6050    4.0930 o         1 MOL     -0.581030
      4 H1         -0.6890    3.0350    6.6490 hc        1 MOL      0.105386
      5 H2         -1.4310    1.4170    6.6770 hc        1 MOL      0.105386
      6 H3          0.3340    1.5840    6.5140 hc        1 MOL      0.105386
      7 N1         -1.8280    1.5730    4.1280 n         1 MOL     -0.566714
      8 C3         -2.1830    1.7040    2.6880 c3        1 MOL      0.090111
      9 C4         -2.4990    3.0880    2.1380 c         1 MOL      0.641293
     10 O2         -3.4710    3.7080    2.5080 o         1 MOL     -0.636944
     11 C5         -3.2950    0.6680    2.3590 c3        1 MOL      0.106057
     12 C6         -3.5680    0.5510    0.8840 c         1 MOL      0.212403
     13 O3         -4.6200   -0.0240    0.5940 o         1 MOL     -0.431912
     14 O4         -2.8290    0.9720   -0.0100 o         1 MOL     -0.431912
     15 H4         -2.5520    1.2930    4.7630 hn        1 MOL      0.274261
     16 H5         -1.3060    1.3880    2.1250 h1        1 MOL     -0.033208
     17 H6         -4.1820    1.0020    2.9010 hc        1 MOL      0.003775
     18 H7         -3.0600   -0.2470    2.9180 hc        1 MOL      0.003775
     19 N2         -1.6220    3.6420    1.3440 n         1 MOL     -0.493866
     20 C7         -1.8150    5.0200    0.7650 c3        1 MOL      0.423691
     21 C8         -2.9370    5.0960   -0.3360 c         1 MOL      0.255697
     22 O5         -3.3490    6.2330   -0.7240 o         1 MOL     -0.535877
     23 C9         -0.4290    5.4130    0.1740 c3        1 MOL     -0.610815
     24 H8         -0.8960    3.0430    0.9820 hn        1 MOL      0.260377
     25 H9         -2.1400    5.7550    1.4890 h1        1 MOL     -0.002328
     26 H10         0.3480    5.4510    0.9340 hc        1 MOL      0.164540
     27 H11        -0.2560    4.7750   -0.6980 hc        1 MOL      0.164540
     28 H12        -0.6570    6.4160   -0.1740 hc        1 MOL      0.164540
     29 N3         -3.4220    3.9350   -0.7840 n         1 MOL     -0.087498
     30 C10        -4.4920    3.7310   -1.8390 c3        1 MOL     -0.097081
     31 C11        -5.8750    3.2720   -1.2770 c         1 MOL      0.422014
     32 O6         -6.9040    3.4040   -1.8700 o         1 MOL     -0.524402
     33 C12        -4.1270    2.8240   -3.0210 c3        1 MOL      0.069458
     34 C13        -2.6430    2.9420   -3.3460 c         1 MOL      0.601827
     35 O7         -2.1570    4.0150   -3.7440 o         1 MOL     -0.667169
     36 O8         -1.9990    1.8840   -3.2350 o         1 MOL     -0.667169
     37 H13        -2.9410    3.0810   -0.5120 hn        1 MOL      0.256334
     38 H14        -4.6300    4.7060   -2.3100 h1        1 MOL      0.110179
     39 H15        -4.8240    2.9370   -3.8560 hc        1 MOL     -0.036751
     40 H16        -4.3430    1.8060   -2.6900 hc        1 MOL     -0.036751
     41 N4         -5.8930    2.8130   -0.0070 n         1 MOL     -0.165987
     42 C14        -7.1560    2.7280    0.7490 c3        1 MOL     -0.246532
     43 C15        -7.9690    1.4380    0.5470 c         1 MOL      0.576919
     44 O9         -8.9640    1.2520    1.2360 o         1 MOL     -0.578698
     45 H17        -5.0120    2.6310    0.4420 hn        1 MOL      0.102448
     46 H18        -7.7990    3.5930    0.5740 h1        1 MOL      0.127503
     47 H19        -6.8680    2.7950    1.7940 h1        1 MOL      0.127503
     48 N5         -7.3250    0.4790   -0.1670 n         1 MOL     -0.381923
     49 C16        -7.8460   -0.8590   -0.4150 c3        1 MOL      0.047076
     50 C17        -7.4450   -2.0030    0.5720 c         1 MOL      0.369981
     51 O10        -8.0470   -3.0590    0.4760 o         1 MOL     -0.474475
     52 C18        -7.4500   -1.1280   -1.8530 c3        1 MOL     -0.164520
     53 C19        -7.7050   -2.5420   -2.3460 c         1 MOL      0.639895
     54 N6         -6.7370   -3.4070   -2.2020 n         1 MOL     -0.753662
     55 O11        -8.7730   -2.8370   -2.8110 o         1 MOL     -0.572765
     56 H20        -6.3460    0.6250   -0.3210 hn        1 MOL      0.251211
     57 H21        -8.9340   -0.7990   -0.3980 h1        1 MOL      0.121435
     58 H22        -6.4150   -0.8560   -2.0200 hc        1 MOL      0.053380
     59 H23        -8.0910   -0.5410   -2.5060 hc        1 MOL      0.053380
     60 H24        -5.7670   -3.1940   -1.9950 hn        1 MOL      0.329375
     61 H25        -6.9710   -4.3670   -2.4220 hn        1 MOL      0.329375
     62 N7         -6.4680   -1.8190    1.5300 n         1 MOL     -0.221408
     63 C20        -5.9690   -2.8260    2.5520 c3        1 MOL     -0.134411
     64 C21        -4.8310   -3.6910    2.0760 c         1 MOL      0.596996
     65 O12        -4.8510   -4.8630    2.4230 o         1 MOL     -0.576020
     66 H26        -5.8830   -1.0070    1.3690 hn        1 MOL      0.122539
     67 H27        -6.8030   -3.5210    2.7150 h1        1 MOL      0.090007
     68 H28        -5.6320   -2.2560    3.4060 h1        1 MOL      0.090007
     69 N8         -3.9690   -3.2260    1.1340 n         1 MOL     -0.378296
     70 C22        -2.7750   -3.9690    0.6220 c3        1 MOL      0.053482
     71 C23        -1.5650   -3.0550    0.4170 c         1 MOL      0.432107
     72 O13        -1.6920   -1.8730    0.1260 o         1 MOL     -0.453619
     73 C24        -3.1010   -4.6040   -0.7320 c3        1 MOL      0.204670
     74 C25        -4.1590   -5.6870   -0.6910 c3        1 MOL     -0.373556
     75 O14        -3.5620   -3.7210   -1.6600 oh        1 MOL     -0.530897
     76 H29        -4.1140   -2.2690    0.8720 hn        1 MOL      0.227899
     77 H30        -2.3960   -4.6810    1.3680 h1        1 MOL      0.077134
     78 H31        -2.2200   -5.1560   -1.0570 h1        1 MOL      0.021083
     79 H32        -3.5990   -4.2300   -2.4720 ho        1 MOL      0.370791
     80 H33        -4.2550   -6.1800   -1.6680 hc        1 MOL      0.105025
     81 H34        -3.8480   -6.5040   -0.0380 hc        1 MOL      0.105025
     82 H35        -5.1860   -5.3730   -0.5300 hc        1 MOL      0.105025
     83 N9         -0.3900   -3.5530    0.8320 n         1 MOL     -0.383735
     84 C26         0.8910   -2.7460    1.0170 c3        1 MOL     -0.015641
     85 C27         1.9070   -3.0430   -0.0810 c         1 MOL      0.374252
     86 O15         2.4570   -4.1520   -0.1630 o         1 MOL     -0.554431
     87 C28         1.4910   -2.8290    2.4690 c3        1 MOL      0.415478
     88 C29         2.0630   -4.1310    3.0520 c3        1 MOL      0.156973
     89 C30         0.5180   -2.1540    3.4270 c3        1 MOL     -0.485573
     90 C31         3.2760   -3.9320    3.9980 c3        1 MOL     -0.266898
     91 H36        -0.2610   -4.5200    1.0540 hn        1 MOL      0.232150
     92 H37         0.6540   -1.7030    0.8180 h1        1 MOL      0.052137
     93 H38         2.3390   -2.1650    2.3230 hc        1 MOL     -0.143827
     94 H39         2.3400   -4.8050    2.2440 hc        1 MOL     -0.056272
     95 H40         1.2140   -4.4860    3.6410 hc        1 MOL     -0.056272
     96 H41         0.3800   -1.1000    3.1730 hc        1 MOL      0.105395
     97 H42        -0.4720   -2.5780    3.2520 hc        1 MOL      0.105395
     98 H43         0.7980   -2.2140    4.4760 hc        1 MOL      0.105395
     99 H44         3.2790   -4.8590    4.5600 hc        1 MOL      0.059990
    100 H45         4.1640   -3.8850    3.3680 hc        1 MOL      0.059990
    101 H46         3.1620   -3.0720    4.6480 hc        1 MOL      0.059990
    102 N10         2.2340   -1.9960   -0.8470 n         1 MOL     -0.160141
    103 C32         3.4340   -2.0030   -1.7780 c3        1 MOL      0.063250
    104 C33         4.7510   -1.3940   -1.1290 c         1 MOL      0.460496
    105 O16         4.6700   -0.9040   -0.0010 o         1 MOL     -0.411649
    106 C34         2.9790   -1.4380   -3.1370 c3        1 MOL     -0.015734
    107 C35         2.1410   -0.1390   -3.0120 c         1 MOL      0.656804
    108 O17         2.6940    0.9540   -2.8990 o         1 MOL     -0.664645
    109 O18         0.8710   -0.1970   -3.1690 o         1 MOL     -0.664645
    110 H47         1.8060   -1.1190   -0.5670 hn        1 MOL      0.271003
    111 H48         3.6670   -3.0530   -1.9910 h1        1 MOL      0.057154
    112 H49         2.3470   -2.2180   -3.5430 hc        1 MOL     -0.039435
    113 H50         3.7950   -1.1930   -3.8300 hc        1 MOL     -0.039435
    114 N11         5.9050   -1.3470   -1.8100 n         1 MOL     -0.777022
    115 C36         7.1660   -1.0410   -1.2090 c3        1 MOL      0.712899
    116 C37         7.2600    0.2820   -0.4870 c         1 MOL      0.104186
    117 O19         7.9650    0.3570    0.5430 o         1 MOL     -0.468704
    118 C38         8.2900   -1.3920   -2.1610 c3        1 MOL     -0.337222
    119 C39         9.7310   -1.3300   -1.6610 ca        1 MOL      0.298278
    120 C40        10.1400   -2.0510   -0.5090 ca        1 MOL     -0.340161
    121 C41        10.7190   -0.5790   -2.3770 ca        1 MOL     -0.340161
    122 C42        11.4330   -1.9690   -0.0050 ca        1 MOL      0.061095
    123 C43        12.0380   -0.6390   -1.9370 ca        1 MOL      0.061095
    124 C44        12.4430   -1.3680   -0.7890 ca        1 MOL     -0.292464
    125 H51         5.8860   -1.3820   -2.8190 hn        1 MOL      0.323808
    126 H52         7.4370   -1.7230   -0.4010 h1        1 MOL     -0.016145
    127 H53         8.1430   -0.7340   -3.0140 hc        1 MOL      0.060651
    128 H54         8.1240   -2.3980   -2.5450 hc        1 MOL      0.060651
    129 H55         9.4080   -2.6250    0.0410 ha        1 MOL      0.153484
    130 H56        10.4270    0.0940   -3.1620 ha        1 MOL      0.153484
    131 H57        11.7000   -2.5090    0.8960 ha        1 MOL      0.074940
    132 H58        12.7710   -0.1210   -2.5360 ha        1 MOL      0.074940
    133 H59        13.4730   -1.3610   -0.4590 ha        1 MOL      0.137743
    134 N12         6.6810    1.3800   -0.9890 n         1 MOL      0.018653
    135 C45         6.7270    2.6340   -0.3000 c3        1 MOL      0.059168
    136 C46         5.9630    2.6020    0.9860 c         1 MOL      0.219546
    137 O20         6.3620    3.2110    2.0210 o         1 MOL     -0.479833
    138 C47         6.0040    3.6420   -1.3030 c3        1 MOL      0.029275
    139 C48         6.1960    2.9980   -2.7000 c3        1 MOL     -0.177861
    140 C49         6.1140    1.4890   -2.3260 c3        1 MOL     -0.190608
    141 H60         7.7790    2.8720   -0.1260 h1        1 MOL      0.050472
    142 H61         4.9530    3.7320   -1.0500 hc        1 MOL      0.034662
    143 H62         6.4680    4.6240   -1.2360 hc        1 MOL      0.034662
    144 H63         5.4250    3.2080   -3.4430 hc        1 MOL      0.065177
    145 H64         7.1890    3.0760   -3.1390 hc        1 MOL      0.065177
    146 H65         5.0680    1.1930   -2.3630 h1        1 MOL      0.129404
    147 H66         6.6840    0.9180   -3.0620 h1        1 MOL      0.129404
    148 N13         4.7910    1.8880    1.0210 n         1 MOL     -0.037938
    149 C50         4.0180    1.6590    2.1860 c3        1 MOL     -0.279556
    150 C51         4.7970    0.7600    3.1810 c         1 MOL      0.461614
    151 O21         4.7110    0.9200    4.4310 o         1 MOL     -0.567395
    152 C52         2.5660    1.1870    1.7950 c3        1 MOL      0.015094
    153 C53         1.7710    2.1800    0.7880 c3        1 MOL     -0.450916
    154 C54         0.7050    1.4980   -0.0650 c         1 MOL      1.203959
    155 O22        -0.2160    2.0900   -0.6050 o         1 MOL     -0.940980
    156 O23         0.7630    0.2770   -0.2710 o         1 MOL     -0.940980
    157 H67         4.4980    1.3200    0.2350 hn        1 MOL      0.186946
    158 H68         4.0040    2.6220    2.6990 h1        1 MOL      0.141812
    159 H69         2.0950    1.0050    2.7590 hc        1 MOL      0.090687
    160 H70         2.6580    0.2270    1.2730 hc        1 MOL      0.090687
    161 H71         2.3950    2.5390   -0.0280 hc        1 MOL      0.137155
    162 H72         1.2210    2.9420    1.3450 hc        1 MOL      0.137155
    163 N14         5.5780   -0.2370    2.7030 n         1 MOL     -0.074909
    164 C55         6.4780   -1.0400    3.5450 c3        1 MOL     -0.034698
    165 H73         6.6070   -0.5490    4.5090 h1        1 MOL      0.035271
    166 H74         6.0460   -2.0300    3.6970 h1        1 MOL      0.035271
    167 H75         7.4460   -1.1370    3.0540 h1        1 MOL      0.035271
    168 H76         5.4020   -0.4140    1.7260 hn        1 MOL      0.098301
    169 Ca1        -1.2620   -0.0270   -1.7680 Ca        1 MOL      1.667259
    170 O24        -0.5930   -2.4990   -2.6280 oh        1 MOL     -0.884399
    171 H77         0.2650   -2.3270   -3.0150 ho        1 MOL      0.420150
    172 H78        -1.1810   -2.5820   -3.3760 ho        1 MOL      0.420150
    173 O25        -4.0020   -0.9720   -1.9180 oh        1 MOL     -0.884399
    174 H79        -4.2110   -0.4000   -1.1830 ho        1 MOL      0.420150
    175 H80        -4.0990   -1.8580   -1.5680 ho        1 MOL      0.420150
    176 O26        -2.1790   -1.1060   -4.4160 oh        1 MOL     -0.884399
    177 H81        -3.1040   -1.3180   -4.2860 ho        1 MOL      0.420150
    178 H82        -2.0290   -1.2410   -5.3490 ho        1 MOL      0.420150
@<TRIPOS>BOND
     1    1    2 1   
     2    1    4 1   
     3    1    5 1   
     4    1    6 1   
     5    2    3 2   
     6    2    7 1   
     7    7    8 1   
     8    7   15 1   
     9    8    9 1   
    10    8   11 1   
    11    8   16 1   
    12    9   10 2   
    13    9   19 1   
    14   11   12 1   
    15   11   17 1   
    16   11   18 1   
    17   12   13 1   
    18   12   14 1   
    19   19   20 1   
    20   19   24 1   
    21   20   21 1   
    22   20   23 1   
    23   20   25 1   
    24   21   22 2   
    25   21   29 1   
    26   23   26 1   
    27   23   27 1   
    28   23   28 1   
    29   29   30 1   
    30   29   37 1   
    31   30   31 1   
    32   30   33 1   
    33   30   38 1   
    34   31   32 2   
    35   31   41 1   
    36   33   34 1   
    37   33   39 1   
    38   33   40 1   
    39   34   35 1   
    40   34   36 1   
    41   41   42 1   
    42   41   45 1   
    43   42   43 1   
    44   42   46 1   
    45   42   47 1   
    46   43   44 2   
    47   43   48 1   
    48   48   49 1   
    49   48   56 1   
    50   49   50 1   
    51   49   52 1   
    52   49   57 1   
    53   50   51 2   
    54   50   62 1   
    55   52   53 1   
    56   52   58 1   
    57   52   59 1   
    58   53   54 1   
    59   53   55 2   
    60   54   60 1   
    61   54   61 1   
    62   62   63 1   
    63   62   66 1   
    64   63   64 1   
    65   63   67 1   
    66   63   68 1   
    67   64   65 2   
    68   64   69 1   
    69   69   70 1   
    70   69   76 1   
    71   70   71 1   
    72   70   73 1   
    73   70   77 1   
    74   71   72 2   
    75   71   83 1   
    76   73   74 1   
    77   73   75 1   
    78   73   78 1   
    79   74   80 1   
    80   74   81 1   
    81   74   82 1   
    82   75   79 1   
    83   83   84 1   
    84   83   91 1   
    85   84   85 1   
    86   84   87 1   
    87   84   92 1   
    88   85   86 2   
    89   85  102 1   
    90   87   88 1   
    91   87   89 1   
    92   87   93 1   
    93   88   90 1   
    94   88   94 1   
    95   88   95 1   
    96   89   96 1   
    97   89   97 1   
    98   89   98 1   
    99   90   99 1   
   100   90  100 1   
   101   90  101 1   
   102  102  103 1   
   103  102  110 1   
   104  103  104 1   
   105  103  106 1   
   106  103  111 1   
   107  104  105 2   
   108  104  114 1   
   109  106  107 1   
   110  106  112 1   
   111  106  113 1   
   112  107  108 1   
   113  107  109 1   
   114  114  115 1   
   115  114  125 1   
   116  115  116 1   
   117  115  118 1   
   118  115  126 1   
   119  116  117 2   
   120  116  134 1   
   121  118  119 1   
   122  118  127 1   
   123  118  128 1   
   124  119  120 ar  
   125  119  121 ar  
   126  120  122 ar  
   127  120  129 1   
   128  121  123 ar  
   129  121  130 1   
   130  122  124 ar  
   131  122  131 1   
   132  123  124 ar  
   133  123  132 1   
   134  124  133 1   
   135  134  135 1   
   136  134  140 1   
   137  135  136 1   
   138  135  138 1   
   139  135  141 1   
   140  136  137 2   
   141  136  148 1   
   142  138  139 1   
   143  138  142 1   
   144  138  143 1   
   145  139  140 1   
   146  139  144 1   
   147  139  145 1   
   148  140  146 1   
   149  140  147 1   
   150  148  149 1   
   151  148  157 1   
   152  149  150 1   
   153  149  152 1   
   154  149  158 1   
   155  150  151 2   
   156  150  163 1   
   157  152  153 1   
   158  152  159 1   
   159  152  160 1   
   160  153  154 1   
   161  153  161 1   
   162  153  162 1   
   163  154  155 1   
   164  154  156 1   
   165  163  164 1   
   166  163  168 1   
   167  164  165 1   
   168  164  166 1   
   169  164  167 1   
   170  170  171 1   
   171  170  172 1   
   172  173  174 1   
   173  173  175 1   
   174  176  177 1   
   175  176  178 1   
@<TRIPOS>SUBSTRUCTURE
     1 MOL         1 TEMP              0 ****  ****    0 ROOT
