@<TRIPOS>MOLECULE
MOL
  186   183     1     0     0
SMALL
resp


@<TRIPOS>ATOM
      1 C1         -0.7770    1.8670    6.7290 c3        1 MOL     -0.286747
      2 C2         -0.8120    1.7300    5.2030 c         1 MOL      0.812426
      3 O1          0.1200    2.0680    4.5160 o         1 MOL     -0.577376
      4 H1         -1.5470    2.5690    7.0470 hc        1 MOL      0.060206
      5 H2         -0.9620    0.8940    7.1850 hc        1 MOL      0.060206
      6 H3          0.2010    2.2350    7.0390 hc        1 MOL      0.060206
      7 N1         -2.0250    1.3870    4.6490 n         1 MOL     -0.741925
      8 C3         -2.3090    1.3830    3.1840 c3        1 MOL      0.117024
      9 C4         -2.6780    2.8130    2.6960 c         1 MOL      0.706229
     10 O2         -3.4610    3.5030    3.3840 o         1 MOL     -0.623227
     11 C5         -3.4950    0.4650    2.9480 c3        1 MOL     -0.241689
     12 C6         -4.1390    0.4740    1.5480 c         1 MOL      0.760343
     13 O3         -3.4160    0.6740    0.5990 o         1 MOL     -0.677755
     14 O4         -5.4060    0.4760    1.4030 o         1 MOL     -0.677755
     15 H4         -2.8240    1.2410    5.2550 hn        1 MOL      0.353887
     16 H5         -1.4710    0.9700    2.6080 h1        1 MOL      0.029514
     17 H6         -4.1900    0.9020    3.6490 hc        1 MOL      0.040670
     18 H7         -3.2170   -0.5370    3.2680 hc        1 MOL      0.040670
     19 N2         -2.2420    3.2530    1.5470 n         1 MOL     -0.358089
     20 C7         -2.2350    4.6640    1.1240 c3        1 MOL     -0.056746
     21 C8         -3.1760    4.9250   -0.0570 c         1 MOL      0.451362
     22 O5         -3.6540    6.0290   -0.3150 o         1 MOL     -0.571366
     23 C9         -0.7880    5.0700    0.7990 c3        1 MOL      0.288029
     24 C10         0.1310    5.2240    2.0220 c3        1 MOL     -0.077233
     25 C11        -0.8180    6.5270    0.2230 c3        1 MOL     -0.461139
     26 C12        -0.1660    6.3590    3.0400 c3        1 MOL     -0.037123
     27 H8         -1.7400    2.5960    0.9640 hn        1 MOL      0.141560
     28 H9         -2.5740    5.2940    1.9520 h1        1 MOL      0.098156
     29 H10        -0.3380    4.3810    0.0750 hc        1 MOL      0.014264
     30 H11         1.1080    5.4440    1.5920 hc        1 MOL      0.012811
     31 H12         0.1370    4.2660    2.5440 hc        1 MOL      0.012811
     32 H13        -1.2950    7.3300    0.7740 hc        1 MOL      0.110525
     33 H14         0.1730    6.8770   -0.0870 hc        1 MOL      0.110525
     34 H15        -1.2920    6.5070   -0.7620 hc        1 MOL      0.110525
     35 H16         0.4800    6.2840    3.8980 hc        1 MOL      0.004614
     36 H17        -0.1720    7.3990    2.7150 hc        1 MOL      0.004614
     37 H18        -1.1970    6.2240    3.3740 hc        1 MOL      0.004614
     38 N3         -3.6240    3.8750   -0.8420 n         1 MOL     -0.277164
     39 C13        -4.6060    3.9890   -1.9470 c3        1 MOL      0.105044
     40 C14        -5.9110    3.2230   -1.7370 c         1 MOL      0.301917
     41 O6         -6.6180    2.9500   -2.7420 o         1 MOL     -0.501445
     42 C15        -4.0380    3.8530   -3.3110 c3        1 MOL     -0.278081
     43 C16        -3.3220    2.4840   -3.5120 c         1 MOL      0.819244
     44 O7         -2.5650    2.2710   -4.4910 o         1 MOL     -0.726246
     45 O8         -3.4790    1.5470   -2.6920 o         1 MOL     -0.726246
     46 H19        -3.1920    2.9660   -0.7420 hn        1 MOL      0.221152
     47 H20        -5.0430    4.9930   -1.8910 h1        1 MOL      0.088195
     48 H21        -3.2560    4.6070   -3.3480 hc        1 MOL      0.069827
     49 H22        -4.7080    4.0700   -4.1410 hc        1 MOL      0.069827
     50 N4         -6.2960    2.8250   -0.5430 n         1 MOL     -0.206958
     51 C17        -7.6090    2.2110   -0.1060 c3        1 MOL     -0.134764
     52 C18        -7.9650    0.8000   -0.7330 c         1 MOL      0.475198
     53 O9         -9.0690    0.5920   -1.1750 o         1 MOL     -0.548815
     54 H23        -5.6570    3.1670    0.1570 hn        1 MOL      0.218841
     55 H24        -8.4210    2.8880   -0.3400 h1        1 MOL      0.080831
     56 H25        -7.5490    2.1220    0.9830 h1        1 MOL      0.080831
     57 N5         -6.8890   -0.0010   -1.0000 n         1 MOL     -0.185595
     58 C19        -7.1490   -1.4490   -1.3790 c3        1 MOL      0.060024
     59 C20        -7.1440   -2.5200   -0.2750 c         1 MOL      0.351234
     60 O10        -7.7680   -3.5820   -0.5450 o         1 MOL     -0.554639
     61 C21        -6.2540   -1.9140   -2.5490 c3        1 MOL     -0.220499
     62 C22        -4.7590   -1.8060   -2.2150 c         1 MOL      0.821438
     63 O11        -4.3490   -2.0220   -1.0820 o         1 MOL     -0.797333
     64 O12        -3.9240   -1.5530   -3.0910 o         1 MOL     -0.797333
     65 H26        -5.9990    0.3350   -0.6690 hn        1 MOL      0.154071
     66 H27        -8.1680   -1.4520   -1.7700 h1        1 MOL      0.080206
     67 H28        -6.3920   -1.2690   -3.4150 hc        1 MOL      0.057979
     68 H29        -6.5470   -2.9160   -2.8240 hc        1 MOL      0.057979
     69 N6         -6.6380   -2.1680    0.9150 n         1 MOL     -0.103977
     70 C23        -6.5610   -2.9650    2.0800 c3        1 MOL     -0.175751
     71 C24        -5.4230   -3.9680    2.1010 c         1 MOL      0.555732
     72 O13        -5.3360   -4.7500    3.0240 o         1 MOL     -0.600878
     73 H30        -6.2490   -1.2470    0.8410 hn        1 MOL      0.111543
     74 H31        -7.5280   -3.4350    2.2380 h1        1 MOL      0.083628
     75 H32        -6.4610   -2.2920    2.9410 h1        1 MOL      0.083628
     76 N7         -4.4830   -3.8100    1.2110 n         1 MOL     -0.304597
     77 C25        -3.1660   -4.4500    1.3370 c3        1 MOL      0.053960
     78 C26        -2.0440   -3.4090    1.2320 c         1 MOL      0.490684
     79 O14        -2.2370   -2.3030    0.6850 o         1 MOL     -0.528776
     80 C27        -3.0430   -5.5280    0.2040 c3        1 MOL     -0.038996
     81 C28        -3.1460   -5.0620   -1.2660 c3        1 MOL     -0.147633
     82 C29        -3.0740   -6.3070   -2.1800 c         1 MOL      0.676393
     83 N8         -3.0850   -6.0630   -3.4810 n         1 MOL     -0.828862
     84 O15        -2.8650   -7.4490   -1.7590 o         1 MOL     -0.576034
     85 H33        -4.4450   -2.9460    0.6870 hn        1 MOL      0.294178
     86 H34        -3.1310   -5.0040    2.2750 h1        1 MOL      0.047699
     87 H35        -3.7100   -6.3600    0.4230 hc        1 MOL      0.011439
     88 H36        -2.0180   -5.8880    0.3340 hc        1 MOL      0.011439
     89 H37        -2.3670   -4.3100   -1.3920 hc        1 MOL      0.080996
     90 H38        -4.1360   -4.6050   -1.2900 hc        1 MOL      0.080996
     91 H39        -3.2170   -5.1370   -3.8630 hn        1 MOL      0.364965
     92 H40        -2.8120   -6.8110   -4.1060 hn        1 MOL      0.364965
     93 N9         -0.8680   -3.8730    1.7080 n         1 MOL     -0.398166
     94 C30         0.3610   -3.0110    1.8890 c3        1 MOL      0.098297
     95 C31         1.4320   -3.4820    0.9780 c         1 MOL      0.411082
     96 O16         1.9890   -4.5780    1.1460 o         1 MOL     -0.596408
     97 C32         0.7570   -2.8220    3.4760 c3        1 MOL      0.101926
     98 C33         2.2030   -2.2550    3.5900 c3        1 MOL     -0.334325
     99 C34        -0.1320   -1.7310    4.0180 c3        1 MOL     -0.334325
    100 H41        -0.8640   -4.6850    2.3270 hn        1 MOL      0.265010
    101 H42         0.1540   -2.0070    1.5460 h1        1 MOL      0.042071
    102 H43         0.6470   -3.7490    4.0410 hc        1 MOL      0.026342
    103 H44         2.4950   -1.6290    2.7420 hc        1 MOL      0.088526
    104 H45         2.3480   -1.7270    4.5300 hc        1 MOL      0.088526
    105 H46         2.7950   -3.1670    3.5170 hc        1 MOL      0.088526
    106 H47        -1.1720   -2.0420    3.9290 hc        1 MOL      0.088526
    107 H48         0.0770   -1.4400    5.0490 hc        1 MOL      0.088526
    108 H49         0.0810   -0.8010    3.4810 hc        1 MOL      0.088526
    109 N10         1.7800   -2.6820    0.0330 n         1 MOL     -0.172049
    110 C35         2.9500   -2.9150   -0.8860 c3        1 MOL      0.068233
    111 C36         4.1760   -2.2250   -0.3070 c         1 MOL      0.443994
    112 O17         4.1000   -1.4270    0.6420 o         1 MOL     -0.299444
    113 C37         2.6220   -2.4310   -2.2810 c3        1 MOL     -0.176597
    114 C38         3.0670   -1.0720   -2.7030 c         1 MOL      0.474913
    115 N11         2.2700   -0.0560   -2.5140 n         1 MOL     -0.450511
    116 O18         4.1180   -0.8970   -3.3230 o         1 MOL     -0.582075
    117 H50         1.2020   -1.8470    0.0100 hn        1 MOL      0.065270
    118 H51         3.0410   -3.9950   -0.8760 h1        1 MOL      0.075645
    119 H52         1.5570   -2.5140   -2.4840 hc        1 MOL      0.069897
    120 H53         3.0580   -3.1750   -2.9570 hc        1 MOL      0.069897
    121 H54         1.5030   -0.2180   -1.8620 hn        1 MOL      0.296135
    122 H55         2.3720    0.8150   -2.9970 hn        1 MOL      0.296135
    123 N12         5.3180   -2.6040   -0.9360 n         1 MOL     -0.625019
    124 C39         6.5660   -1.9460   -0.5060 c3        1 MOL      0.310787
    125 C40         6.6160   -0.4640   -0.5290 c         1 MOL      0.548968
    126 O19         7.1710    0.0530    0.4200 o         1 MOL     -0.532572
    127 C41         7.7500   -2.4910   -1.3620 c3        1 MOL     -0.255894
    128 C42         9.0660   -2.1170   -0.8050 ca        1 MOL      0.073100
    129 C43         9.5070   -2.8590    0.3060 ca        1 MOL     -0.162290
    130 C44         9.9150   -1.1920   -1.4420 ca        1 MOL     -0.162290
    131 C45        10.7440   -2.4990    0.8550 ca        1 MOL     -0.278727
    132 C46        11.1450   -0.8590   -0.9030 ca        1 MOL     -0.278727
    133 C47        11.5490   -1.4790    0.2890 ca        1 MOL      0.379431
    134 O20        12.7180   -1.2030    0.8890 oh        1 MOL     -0.541045
    135 H56         5.4310   -3.2830   -1.6780 hn        1 MOL      0.324110
    136 H57         6.6780   -2.2570    0.5300 h1        1 MOL      0.036462
    137 H58         7.7000   -1.9310   -2.2940 hc        1 MOL      0.078551
    138 H59         7.8150   -3.5720   -1.5020 hc        1 MOL      0.078551
    139 H60         8.8310   -3.6000    0.7040 ha        1 MOL      0.142636
    140 H61         9.6340   -0.7670   -2.3950 ha        1 MOL      0.142636
    141 H62        11.0960   -2.9820    1.7590 ha        1 MOL      0.141989
    142 H63        11.7760   -0.1500   -1.4060 ha        1 MOL      0.141989
    143 H64        13.1540   -0.4380    0.5050 ho        1 MOL      0.387586
    144 N13         5.9550    0.2640   -1.4590 n         1 MOL     -0.459936
    145 C48         5.8830    1.7520   -1.5850 c3        1 MOL      0.092874
    146 C49         5.2120    2.3130   -0.3100 c         1 MOL      0.275218
    147 O21         5.5230    3.4210    0.0850 o         1 MOL     -0.519729
    148 C50         4.9690    2.1260   -2.7150 c3        1 MOL     -0.342020
    149 C51         5.3310    3.5190   -3.1120 c3        1 MOL     -0.093441
    150 C52         4.7180    4.0690   -4.3640 c         1 MOL      0.601421
    151 O22         5.5040    4.7280   -5.0400 o         1 MOL     -0.711657
    152 O23         3.4600    4.1380   -4.4610 o         1 MOL     -0.711657
    153 H65         5.4910   -0.2550   -2.1890 hn        1 MOL      0.267790
    154 H66         6.8480    2.2470   -1.7230 h1        1 MOL      0.098907
    155 H67         3.9220    2.0570   -2.4150 hc        1 MOL      0.129196
    156 H68         5.0930    1.4280   -3.5470 hc        1 MOL      0.129196
    157 H69         6.4200    3.6110   -3.1560 hc        1 MOL      0.049371
    158 H70         5.0830    4.2090   -2.3090 hc        1 MOL      0.049371
    159 N14         4.3520    1.5220    0.3940 n         1 MOL      0.154177
    160 C53         3.6300    1.9630    1.6630 c3        1 MOL     -0.279849
    161 C54         4.2370    1.5170    2.9530 c         1 MOL      0.538190
    162 O24         4.0000    2.0980    4.0020 o         1 MOL     -0.573153
    163 C55         2.1730    1.4380    1.5150 c3        1 MOL      0.103650
    164 C56         1.5080    1.9510    0.2500 c3        1 MOL      0.059500
    165 C57         0.2970    1.0870   -0.1190 c         1 MOL      0.515236
    166 O25        -0.7660    1.6090   -0.2880 o         1 MOL     -0.612125
    167 O26         0.4100   -0.1970   -0.1850 o         1 MOL     -0.612125
    168 H71         4.2590    0.5250    0.2760 hn        1 MOL     -0.130127
    169 H72         3.6590    3.0470    1.6380 h1        1 MOL      0.136953
    170 H73         1.6050    1.6950    2.4040 hc        1 MOL      0.043514
    171 H74         2.1610    0.3550    1.4970 hc        1 MOL      0.043514
    172 H75         2.1820    1.9310   -0.6120 hc        1 MOL     -0.000668
    173 H76         1.2410    2.9880    0.4760 hc        1 MOL     -0.000668
    174 N15         5.1300    0.5810    2.8540 n         1 MOL     -0.122292
    175 C58         5.8180   -0.0470    3.9990 c3        1 MOL     -0.127860
    176 H77         5.2980    0.2110    4.9220 h1        1 MOL      0.057940
    177 H78         5.8200   -1.1290    3.8740 h1        1 MOL      0.057940
    178 H79         6.8450    0.3160    4.0490 h1        1 MOL      0.057940
    179 H80         5.1800    0.1070    1.9680 hn        1 MOL      0.095553
    180 Ca1        -2.2680   -0.4290   -1.3420 Ca        1 MOL      1.704330
    181 O27        -0.9190   -2.3300   -2.8390 oh        1 MOL     -0.797323
    182 H81        -0.3360   -1.9920   -3.5190 ho        1 MOL      0.376188
    183 H82        -1.4030   -3.0390   -3.2670 ho        1 MOL      0.376188
    184 O28        -0.5880    0.5960   -3.2980 oh        1 MOL     -0.797323
    185 H83        -1.2260    1.1050   -3.8030 ho        1 MOL      0.376188
    186 H84        -0.1660    0.0300   -3.9510 ho        1 MOL      0.376188
@<TRIPOS>BOND
     1    1    2 1   
     2    1    4 1   
     3    1    5 1   
     4    1    6 1   
     5    2    3 2   
     6    2    7 1   
     7    7    8 1   
     8    7   15 1   
     9    8    9 1   
    10    8   11 1   
    11    8   16 1   
    12    9   10 2   
    13    9   19 1   
    14   11   12 1   
    15   11   17 1   
    16   11   18 1   
    17   12   13 1   
    18   12   14 1   
    19   19   20 1   
    20   19   27 1   
    21   20   21 1   
    22   20   23 1   
    23   20   28 1   
    24   21   22 2   
    25   21   38 1   
    26   23   24 1   
    27   23   25 1   
    28   23   29 1   
    29   24   26 1   
    30   24   30 1   
    31   24   31 1   
    32   25   32 1   
    33   25   33 1   
    34   25   34 1   
    35   26   35 1   
    36   26   36 1   
    37   26   37 1   
    38   38   39 1   
    39   38   46 1   
    40   39   40 1   
    41   39   42 1   
    42   39   47 1   
    43   40   41 2   
    44   40   50 1   
    45   42   43 1   
    46   42   48 1   
    47   42   49 1   
    48   43   44 1   
    49   43   45 1   
    50   50   51 1   
    51   50   54 1   
    52   51   52 1   
    53   51   55 1   
    54   51   56 1   
    55   52   53 2   
    56   52   57 1   
    57   57   58 1   
    58   57   65 1   
    59   58   59 1   
    60   58   61 1   
    61   58   66 1   
    62   59   60 2   
    63   59   69 1   
    64   61   62 1   
    65   61   67 1   
    66   61   68 1   
    67   62   63 1   
    68   62   64 1   
    69   69   70 1   
    70   69   73 1   
    71   70   71 1   
    72   70   74 1   
    73   70   75 1   
    74   71   72 2   
    75   71   76 1   
    76   76   77 1   
    77   76   85 1   
    78   77   78 1   
    79   77   80 1   
    80   77   86 1   
    81   78   79 2   
    82   78   93 1   
    83   80   81 1   
    84   80   87 1   
    85   80   88 1   
    86   81   82 1   
    87   81   89 1   
    88   81   90 1   
    89   82   83 1   
    90   82   84 2   
    91   83   91 1   
    92   83   92 1   
    93   93   94 1   
    94   93  100 1   
    95   94   95 1   
    96   94   97 1   
    97   94  101 1   
    98   95   96 2   
    99   95  109 1   
   100   97   98 1   
   101   97   99 1   
   102   97  102 1   
   103   98  103 1   
   104   98  104 1   
   105   98  105 1   
   106   99  106 1   
   107   99  107 1   
   108   99  108 1   
   109  109  110 1   
   110  109  117 1   
   111  110  111 1   
   112  110  113 1   
   113  110  118 1   
   114  111  112 2   
   115  111  123 1   
   116  113  114 1   
   117  113  119 1   
   118  113  120 1   
   119  114  115 1   
   120  114  116 2   
   121  115  121 1   
   122  115  122 1   
   123  123  124 1   
   124  123  135 1   
   125  124  125 1   
   126  124  127 1   
   127  124  136 1   
   128  125  126 2   
   129  125  144 1   
   130  127  128 1   
   131  127  137 1   
   132  127  138 1   
   133  128  129 ar  
   134  128  130 ar  
   135  129  131 ar  
   136  129  139 1   
   137  130  132 ar  
   138  130  140 1   
   139  131  133 ar  
   140  131  141 1   
   141  132  133 ar  
   142  132  142 1   
   143  133  134 1   
   144  134  143 1   
   145  144  145 1   
   146  144  153 1   
   147  145  146 1   
   148  145  148 1   
   149  145  154 1   
   150  146  147 2   
   151  146  159 1   
   152  148  149 1   
   153  148  155 1   
   154  148  156 1   
   155  149  150 1   
   156  149  157 1   
   157  149  158 1   
   158  150  151 1   
   159  150  152 1   
   160  159  160 1   
   161  159  168 1   
   162  160  161 1   
   163  160  163 1   
   164  160  169 1   
   165  161  162 2   
   166  161  174 1   
   167  163  164 1   
   168  163  170 1   
   169  163  171 1   
   170  164  165 1   
   171  164  172 1   
   172  164  173 1   
   173  165  166 1   
   174  165  167 1   
   175  174  175 1   
   176  174  179 1   
   177  175  176 1   
   178  175  177 1   
   179  175  178 1   
   180  181  182 1   
   181  181  183 1   
   182  184  185 1   
   183  184  186 1   
@<TRIPOS>SUBSTRUCTURE
     1 MOL         1 TEMP              0 ****  ****    0 ROOT
