@<TRIPOS>MOLECULE
MOL
  186   183     1     0     0
SMALL
resp


@<TRIPOS>ATOM
      1 C1          1.2110   -1.5490    6.5440 c3        1 MOL     -0.356854
      2 C2          1.4180   -1.5330    4.9680 c         1 MOL      0.669280
      3 O1          0.4270   -1.7310    4.2350 o         1 MOL     -0.544217
      4 H1          0.7380   -2.4850    6.8380 hc        1 MOL      0.085179
      5 H2          2.1780   -1.4610    7.0380 hc        1 MOL      0.085179
      6 H3          0.5760   -0.7130    6.8360 hc        1 MOL      0.085179
      7 N1          2.6630   -1.4060    4.5320 n         1 MOL     -0.571361
      8 C3          3.0200   -1.4950    3.1280 c3        1 MOL      0.093317
      9 C4          3.3560   -2.9190    2.6250 c         1 MOL      0.546112
     10 O2          4.2500   -3.6150    3.1380 o         1 MOL     -0.571964
     11 C5          4.2150   -0.6360    2.9410 c3        1 MOL     -0.245259
     12 C6          4.7500   -0.5360    1.5150 c         1 MOL      0.879661
     13 O3          5.9360   -0.1520    1.3530 o         1 MOL     -0.730480
     14 O4          4.0010   -0.7270    0.4950 o         1 MOL     -0.730480
     15 H4          3.3820   -1.3610    5.2370 hn        1 MOL      0.337774
     16 H5          2.2040   -1.0220    2.5810 h1        1 MOL      0.039933
     17 H6          5.0430   -0.8670    3.6030 hc        1 MOL      0.043380
     18 H7          3.9110    0.3960    3.1580 hc        1 MOL      0.043380
     19 N2          2.5890   -3.3550    1.5970 n         1 MOL     -0.265539
     20 C7          2.4550   -4.8190    1.3590 c3        1 MOL     -0.173793
     21 C8          3.4200   -5.2200    0.2020 c         1 MOL      0.570046
     22 O5          3.6330   -6.4080    0.0570 o         1 MOL     -0.584025
     23 C9          0.9040   -5.1410    1.0660 c3        1 MOL      0.279651
     24 C10         0.1670   -4.9590    2.4300 c3        1 MOL     -0.047599
     25 C11         0.5900   -6.5050    0.5560 c3        1 MOL     -0.258456
     26 C12        -1.3610   -5.0150    2.3990 c3        1 MOL     -0.175286
     27 H8          2.0660   -2.6560    1.0870 hn        1 MOL      0.197741
     28 H9          2.7400   -5.3000    2.2950 h1        1 MOL      0.092821
     29 H10         0.5220   -4.4120    0.3470 hc        1 MOL      0.025794
     30 H11         0.3470   -3.9220    2.7190 hc        1 MOL      0.017200
     31 H12         0.5640   -5.5930    3.2120 hc        1 MOL      0.017200
     32 H13         1.2160   -6.7920   -0.2930 hc        1 MOL      0.047686
     33 H14         0.8050   -7.2750    1.2990 hc        1 MOL      0.047686
     34 H15        -0.4670   -6.5480    0.2970 hc        1 MOL      0.047686
     35 H16        -1.6850   -4.6350    3.3670 hc        1 MOL      0.040886
     36 H17        -1.7990   -4.3580    1.6550 hc        1 MOL      0.040886
     37 H18        -1.7610   -6.0160    2.2730 hc        1 MOL      0.040886
     38 N3          3.9250   -4.3240   -0.6030 n         1 MOL     -0.393535
     39 C13         4.7390   -4.6240   -1.7260 c3        1 MOL     -0.032294
     40 C14         6.0230   -3.7230   -1.9130 c         1 MOL      0.407899
     41 O6          6.6960   -3.7720   -2.9570 o         1 MOL     -0.521911
     42 C15         3.7550   -4.4950   -2.8840 c3        1 MOL     -0.183471
     43 C16         2.9460   -3.2030   -3.0600 c         1 MOL      0.882384
     44 O7          2.9750   -2.2650   -2.2500 o         1 MOL     -0.760777
     45 O8          2.2140   -3.0810   -4.0490 o         1 MOL     -0.760777
     46 H19         3.5910   -3.3750   -0.4860 hn        1 MOL      0.226912
     47 H20         5.0580   -5.6620   -1.8010 h1        1 MOL      0.107681
     48 H21         3.0350   -5.3140   -2.8480 hc        1 MOL      0.042990
     49 H22         4.2550   -4.4620   -3.8510 hc        1 MOL      0.042990
     50 N4          6.3710   -2.9510   -0.9180 n         1 MOL     -0.113292
     51 C17         7.6840   -2.2940   -0.7780 c3        1 MOL     -0.311615
     52 C18         7.9560   -1.0330   -1.5820 c         1 MOL      0.701000
     53 O9          9.0120   -0.9130   -2.1970 o         1 MOL     -0.584430
     54 H23         5.7310   -2.8900   -0.1360 hn        1 MOL      0.186365
     55 H24         8.4570   -3.0040   -1.0650 h1        1 MOL      0.111561
     56 H25         7.8190   -2.2010    0.3010 h1        1 MOL      0.111561
     57 N5          7.0800    0.0190   -1.3790 n         1 MOL     -0.369743
     58 C19         7.3540    1.3150   -1.9590 c3        1 MOL     -0.003085
     59 C20         7.5090    2.5210   -0.9670 c         1 MOL      0.460424
     60 O10         8.2120    3.4730   -1.2500 o         1 MOL     -0.552304
     61 C21         6.3290    1.5740   -3.0230 c3        1 MOL      0.027125
     62 C22         4.8940    1.3180   -2.5790 c         1 MOL      0.639378
     63 O11         4.1860    0.3680   -2.9430 o         1 MOL     -0.713425
     64 O12         4.3550    2.0910   -1.7880 o         1 MOL     -0.713425
     65 H26         6.3130   -0.0930   -0.7440 hn        1 MOL      0.143668
     66 H27         8.2920    1.3660   -2.5160 h1        1 MOL      0.082207
     67 H28         6.4430    1.0440   -3.9680 hc        1 MOL     -0.013008
     68 H29         6.4300    2.6230   -3.3140 hc        1 MOL     -0.013008
     69 N6          7.1020    2.3330    0.3150 n         1 MOL     -0.267286
     70 C23         7.1000    3.3470    1.3660 c3        1 MOL     -0.167951
     71 C24         5.7300    4.0770    1.4600 c         1 MOL      0.537672
     72 O13         5.6830    5.0510    2.2210 o         1 MOL     -0.607213
     73 H30         6.5500    1.4970    0.4530 hn        1 MOL      0.242444
     74 H31         7.8370    4.1320    1.1850 h1        1 MOL      0.110931
     75 H32         7.3150    2.8730    2.3260 h1        1 MOL      0.110931
     76 N7          4.6710    3.8070    0.7230 n         1 MOL     -0.275982
     77 C25         3.2790    4.2430    1.1260 c3        1 MOL     -0.014498
     78 C26         2.2520    3.0930    1.1330 c         1 MOL      0.690090
     79 O14         2.4900    2.0000    0.6540 o         1 MOL     -0.624053
     80 C27         2.8010    5.3530    0.1570 c3        1 MOL      0.027055
     81 C28         3.6820    6.6310    0.0110 c3        1 MOL     -0.419185
     82 C29         3.0860    7.6020   -1.0150 c         1 MOL      0.723526
     83 N8          3.2700    7.3260   -2.2550 n         1 MOL     -0.779726
     84 O15         2.4930    8.6320   -0.7110 o         1 MOL     -0.600423
     85 H33         4.7720    3.1530   -0.0400 hn        1 MOL      0.189242
     86 H34         3.3760    4.6770    2.1160 h1        1 MOL      0.079177
     87 H35         1.7790    5.6920    0.3290 hc        1 MOL      0.035224
     88 H36         2.7120    4.8740   -0.8230 hc        1 MOL      0.035224
     89 H37         4.6840    6.3290   -0.2860 hc        1 MOL      0.134415
     90 H38         3.8780    7.1240    0.9660 hc        1 MOL      0.134415
     91 H39         3.7060    6.4540   -2.5440 hn        1 MOL      0.354056
     92 H40         2.7050    7.7920   -2.9460 hn        1 MOL      0.354056
     93 N9          1.1000    3.4550    1.7160 n         1 MOL     -0.663242
     94 C30        -0.0770    2.5550    1.8580 c3        1 MOL      0.271330
     95 C31        -1.2730    3.0460    1.0510 c         1 MOL      0.428086
     96 O16        -1.7130    4.1320    1.4000 o         1 MOL     -0.568231
     97 C32        -0.4010    2.3990    3.3630 c3        1 MOL      0.279313
     98 C33        -1.5300    1.3290    3.5430 c3        1 MOL     -0.399951
     99 C34         0.7570    1.9030    4.2190 c3        1 MOL     -0.399951
    100 H41         1.0150    4.4020    2.0580 hn        1 MOL      0.314650
    101 H42         0.1510    1.5290    1.5510 h1        1 MOL      0.060659
    102 H43        -0.6910    3.3980    3.6980 hc        1 MOL     -0.047931
    103 H44        -1.1780    0.4630    2.9860 hc        1 MOL      0.090926
    104 H45        -1.6840    1.0230    4.5850 hc        1 MOL      0.090926
    105 H46        -2.3830    1.6760    2.9690 hc        1 MOL      0.090926
    106 H47         1.7050    2.4240    4.1410 hc        1 MOL      0.090926
    107 H48         0.4310    1.9350    5.2600 hc        1 MOL      0.090926
    108 H49         0.9120    0.8400    4.0320 hc        1 MOL      0.090926
    109 N10        -1.7370    2.3180    0.0250 n         1 MOL     -0.382189
    110 C35        -2.9120    2.6720   -0.8270 c3        1 MOL      0.372396
    111 C36        -4.1720    1.9770   -0.2510 c         1 MOL      0.276085
    112 O17        -4.1200    1.2510    0.7790 o         1 MOL     -0.285687
    113 C37        -2.6480    2.3300   -2.3490 c3        1 MOL     -0.681759
    114 C38        -3.1600    0.9530   -2.7600 c         1 MOL      0.885666
    115 N11        -2.3890   -0.0630   -2.9150 n         1 MOL     -0.900266
    116 O18        -4.3760    0.7730   -2.9430 o         1 MOL     -0.646095
    117 H50        -1.2220    1.4740   -0.1850 hn        1 MOL      0.161253
    118 H51        -2.9770    3.7490   -0.6800 h1        1 MOL      0.029040
    119 H52        -1.6080    2.4640   -2.6450 hc        1 MOL      0.195405
    120 H53        -3.2790    3.0260   -2.9060 hc        1 MOL      0.195405
    121 H54        -1.4560   -0.0280   -2.5260 hn        1 MOL      0.427605
    122 H55        -2.6740   -0.9260   -3.3590 hn        1 MOL      0.427605
    123 N12        -5.3980    2.4140   -0.7930 n         1 MOL     -0.565498
    124 C39        -6.7360    2.0440   -0.2490 c3        1 MOL      0.170517
    125 C40        -6.8950    0.5020   -0.1180 c         1 MOL      0.609965
    126 O19        -7.6310    0.0340    0.7330 o         1 MOL     -0.535263
    127 C41        -7.8280    2.5070   -1.1920 c3        1 MOL     -0.246174
    128 C42        -9.2380    2.2110   -0.6140 ca        1 MOL      0.194679
    129 C43        -9.6220    2.9230    0.5370 ca        1 MOL     -0.357089
    130 C44       -10.0990    1.3230   -1.2750 ca        1 MOL     -0.357089
    131 C45       -10.9010    2.5830    1.0950 ca        1 MOL     -0.019782
    132 C46       -11.3750    1.1190   -0.8060 ca        1 MOL     -0.019782
    133 C47       -11.7960    1.7820    0.3190 ca        1 MOL      0.134335
    134 O20       -12.9770    1.4090    0.8350 oh        1 MOL     -0.533782
    135 H56        -5.3160    3.3000   -1.2840 hn        1 MOL      0.306833
    136 H57        -6.7910    2.3590    0.7950 h1        1 MOL      0.042591
    137 H58        -7.7280    2.0020   -2.1530 hc        1 MOL      0.081443
    138 H59        -7.7340    3.5830   -1.3070 hc        1 MOL      0.081443
    139 H60        -8.9260    3.6150    0.9860 ha        1 MOL      0.178327
    140 H61        -9.6460    0.8280   -2.1140 ha        1 MOL      0.178327
    141 H62       -11.2690    3.0860    1.9730 ha        1 MOL      0.088097
    142 H63       -12.0760    0.4310   -1.2630 ha        1 MOL      0.088097
    143 H64       -13.4150    0.6740    0.4010 ho        1 MOL      0.403602
    144 N13        -6.3130   -0.2460   -1.0150 n         1 MOL     -0.237145
    145 C48        -6.3650   -1.7610   -0.8890 c3        1 MOL     -0.062552
    146 C49        -5.5020   -2.3930    0.1710 c         1 MOL      0.249415
    147 O21        -5.8620   -3.3220    0.9300 o         1 MOL     -0.506738
    148 C50        -6.0820   -2.4390   -2.2820 c3        1 MOL      0.169258
    149 C51        -7.3080   -2.0820   -3.1500 c3        1 MOL     -0.295122
    150 C52        -7.1530   -2.7050   -4.5470 c         1 MOL      0.699810
    151 O22        -7.8390   -3.7340   -4.7970 o         1 MOL     -0.741514
    152 O23        -6.3860   -2.2120   -5.4050 o         1 MOL     -0.741514
    153 H65        -5.6780    0.0500   -1.7420 hn        1 MOL      0.246955
    154 H66        -7.4130   -1.9450   -0.6520 h1        1 MOL      0.101843
    155 H67        -6.0600   -3.5210   -2.1810 hc        1 MOL      0.002646
    156 H68        -5.0920   -2.1870   -2.6550 hc        1 MOL      0.002646
    157 H69        -7.3670   -0.9920   -3.1960 hc        1 MOL      0.039385
    158 H70        -8.2050   -2.4970   -2.6740 hc        1 MOL      0.039385
    159 N14        -4.3570   -1.7970    0.4440 n         1 MOL     -0.116241
    160 C53        -3.5160   -2.1350    1.5780 c3        1 MOL     -0.049069
    161 C54        -4.1910   -1.6690    2.8490 c         1 MOL      0.451563
    162 O24        -3.9850   -2.1550    3.9520 o         1 MOL     -0.571413
    163 C55        -2.0820   -1.4970    1.4840 c3        1 MOL      0.010410
    164 C56        -1.4510   -1.8650    0.1090 c3        1 MOL      0.105884
    165 C57        -0.2110   -0.9970   -0.1690 c         1 MOL      0.605250
    166 O25         0.9530   -1.3790    0.1800 o         1 MOL     -0.702775
    167 O26        -0.2860    0.1190   -0.7650 o         1 MOL     -0.702775
    168 H71        -4.1340   -1.0630   -0.2050 hn        1 MOL      0.189641
    169 H72        -3.3690   -3.2180    1.6340 h1        1 MOL      0.086390
    170 H73        -1.5540   -1.7660    2.3910 hc        1 MOL      0.072027
    171 H74        -2.2890   -0.4280    1.4470 hc        1 MOL      0.072027
    172 H75        -2.2240   -1.8030   -0.6490 hc        1 MOL     -0.061344
    173 H76        -1.0860   -2.8970    0.1640 hc        1 MOL     -0.061344
    174 N15        -5.1150   -0.7090    2.7250 n         1 MOL      0.009777
    175 C58        -5.7950   -0.0110    3.8700 c3        1 MOL     -0.252950
    176 H77        -6.4600    0.7610    3.4810 h1        1 MOL      0.091022
    177 H78        -6.3750   -0.7340    4.4440 h1        1 MOL      0.091022
    178 H79        -5.0450    0.4480    4.5130 h1        1 MOL      0.091022
    179 H80        -5.2240   -0.3610    1.7880 hn        1 MOL     -0.066368
    180 Ca1         2.3670    0.1220   -1.2430 Ca        1 MOL      1.776434
    181 O27         1.8360    2.4710   -2.8520 oh        1 MOL     -0.858223
    182 H81         2.6590    2.9610   -2.7850 ho        1 MOL      0.401884
    183 H82         1.5320    2.6450   -3.7480 ho        1 MOL      0.401884
    184 O28         1.0510   -0.6550   -3.4620 oh        1 MOL     -0.858223
    185 H83         0.7290   -0.4780   -4.3450 ho        1 MOL      0.401884
    186 H84         1.5570   -1.4590   -3.5550 ho        1 MOL      0.401884
@<TRIPOS>BOND
     1    1    2 1   
     2    1    4 1   
     3    1    5 1   
     4    1    6 1   
     5    2    3 2   
     6    2    7 1   
     7    7    8 1   
     8    7   15 1   
     9    8    9 1   
    10    8   11 1   
    11    8   16 1   
    12    9   10 2   
    13    9   19 1   
    14   11   12 1   
    15   11   17 1   
    16   11   18 1   
    17   12   13 1   
    18   12   14 1   
    19   19   20 1   
    20   19   27 1   
    21   20   21 1   
    22   20   23 1   
    23   20   28 1   
    24   21   22 2   
    25   21   38 1   
    26   23   24 1   
    27   23   25 1   
    28   23   29 1   
    29   24   26 1   
    30   24   30 1   
    31   24   31 1   
    32   25   32 1   
    33   25   33 1   
    34   25   34 1   
    35   26   35 1   
    36   26   36 1   
    37   26   37 1   
    38   38   39 1   
    39   38   46 1   
    40   39   40 1   
    41   39   42 1   
    42   39   47 1   
    43   40   41 2   
    44   40   50 1   
    45   42   43 1   
    46   42   48 1   
    47   42   49 1   
    48   43   44 1   
    49   43   45 1   
    50   50   51 1   
    51   50   54 1   
    52   51   52 1   
    53   51   55 1   
    54   51   56 1   
    55   52   53 2   
    56   52   57 1   
    57   57   58 1   
    58   57   65 1   
    59   58   59 1   
    60   58   61 1   
    61   58   66 1   
    62   59   60 2   
    63   59   69 1   
    64   61   62 1   
    65   61   67 1   
    66   61   68 1   
    67   62   63 1   
    68   62   64 1   
    69   69   70 1   
    70   69   73 1   
    71   70   71 1   
    72   70   74 1   
    73   70   75 1   
    74   71   72 2   
    75   71   76 1   
    76   76   77 1   
    77   76   85 1   
    78   77   78 1   
    79   77   80 1   
    80   77   86 1   
    81   78   79 2   
    82   78   93 1   
    83   80   81 1   
    84   80   87 1   
    85   80   88 1   
    86   81   82 1   
    87   81   89 1   
    88   81   90 1   
    89   82   83 1   
    90   82   84 2   
    91   83   91 1   
    92   83   92 1   
    93   93   94 1   
    94   93  100 1   
    95   94   95 1   
    96   94   97 1   
    97   94  101 1   
    98   95   96 2   
    99   95  109 1   
   100   97   98 1   
   101   97   99 1   
   102   97  102 1   
   103   98  103 1   
   104   98  104 1   
   105   98  105 1   
   106   99  106 1   
   107   99  107 1   
   108   99  108 1   
   109  109  110 1   
   110  109  117 1   
   111  110  111 1   
   112  110  113 1   
   113  110  118 1   
   114  111  112 2   
   115  111  123 1   
   116  113  114 1   
   117  113  119 1   
   118  113  120 1   
   119  114  115 1   
   120  114  116 2   
   121  115  121 1   
   122  115  122 1   
   123  123  124 1   
   124  123  135 1   
   125  124  125 1   
   126  124  127 1   
   127  124  136 1   
   128  125  126 2   
   129  125  144 1   
   130  127  128 1   
   131  127  137 1   
   132  127  138 1   
   133  128  129 ar  
   134  128  130 ar  
   135  129  131 ar  
   136  129  139 1   
   137  130  132 ar  
   138  130  140 1   
   139  131  133 ar  
   140  131  141 1   
   141  132  133 ar  
   142  132  142 1   
   143  133  134 1   
   144  134  143 1   
   145  144  145 1   
   146  144  153 1   
   147  145  146 1   
   148  145  148 1   
   149  145  154 1   
   150  146  147 2   
   151  146  159 1   
   152  148  149 1   
   153  148  155 1   
   154  148  156 1   
   155  149  150 1   
   156  149  157 1   
   157  149  158 1   
   158  150  151 1   
   159  150  152 1   
   160  159  160 1   
   161  159  168 1   
   162  160  161 1   
   163  160  163 1   
   164  160  169 1   
   165  161  162 2   
   166  161  174 1   
   167  163  164 1   
   168  163  170 1   
   169  163  171 1   
   170  164  165 1   
   171  164  172 1   
   172  164  173 1   
   173  165  166 1   
   174  165  167 1   
   175  174  175 1   
   176  174  179 1   
   177  175  176 1   
   178  175  177 1   
   179  175  178 1   
   180  181  182 1   
   181  181  183 1   
   182  184  185 1   
   183  184  186 1   
@<TRIPOS>SUBSTRUCTURE
     1 MOL         1 TEMP              0 ****  ****    0 ROOT
