@<TRIPOS>MOLECULE
MOL
  176   174     1     0     0
SMALL
resp


@<TRIPOS>ATOM
      1 C1          1.1390    3.5770    6.2210 c3        1 MOL     -0.321421
      2 C2          1.0160    2.9640    4.7710 c         1 MOL      0.727073
      3 O1          1.9820    2.7360    3.9910 o         1 MOL     -0.581150
      4 H1          2.1090    3.3150    6.6440 hc        1 MOL      0.083192
      5 H2          1.0490    4.6620    6.1660 hc        1 MOL      0.083192
      6 H3          0.3470    3.1780    6.8530 hc        1 MOL      0.083192
      7 N1         -0.2580    2.8360    4.3520 n         1 MOL     -0.531323
      8 C3         -0.6310    2.6100    2.9380 c3        1 MOL     -0.031030
      9 C4         -0.5270    3.8910    2.1280 c         1 MOL      0.654928
     10 O2         -0.8450    4.9970    2.6010 o         1 MOL     -0.577182
     11 C5         -1.9890    1.9260    2.8930 c3        1 MOL     -0.123992
     12 C6         -2.2960    1.3260    1.5150 c         1 MOL      0.775770
     13 O3         -2.2630    2.0580    0.5030 o         1 MOL     -0.727116
     14 O4         -2.6760    0.1530    1.3760 o         1 MOL     -0.727116
     15 H4         -1.0760    2.9770    4.9350 hn        1 MOL      0.305689
     16 H5          0.1280    1.8910    2.5920 h1        1 MOL      0.066939
     17 H6         -2.7120    2.6190    3.3400 hc        1 MOL      0.045056
     18 H7         -1.9570    1.0330    3.5240 hc        1 MOL      0.045056
     19 N2          0.0210    3.6920    0.9460 n         1 MOL     -0.341449
     20 C7          0.0590    4.8700    0.0280 c3        1 MOL     -0.293458
     21 C8         -1.2340    5.3410   -0.6170 c         1 MOL      0.694932
     22 O5         -1.2600    6.4690   -1.0770 o         1 MOL     -0.584233
     23 C9          1.1590    4.5110   -1.0050 c3        1 MOL      0.092254
     24 C10         1.5160    5.6530   -1.9990 c3        1 MOL     -0.263474
     25 C11         2.7340    5.2300   -2.7850 c3        1 MOL      0.229200
     26 C12         2.9660    6.3080   -3.7170 c3        1 MOL     -0.008462
     27 N3          4.3760    6.2310   -4.1970 n4        1 MOL     -0.482038
     28 H8          0.1380    2.7620    0.5640 hn        1 MOL      0.213980
     29 H9          0.4770    5.6980    0.6010 h1        1 MOL      0.152742
     30 H10         0.8570    3.6920   -1.6660 hc        1 MOL      0.074774
     31 H11         2.0470    4.2420   -0.4270 hc        1 MOL      0.074774
     32 H12         1.6710    6.6300   -1.5250 hc        1 MOL      0.072117
     33 H13         0.7990    5.7740   -2.8060 hc        1 MOL      0.072117
     34 H14         2.4370    4.2880   -3.2350 hc        1 MOL     -0.020501
     35 H15         3.5610    5.0170   -2.1110 hc        1 MOL     -0.020501
     36 H16         2.7930    7.2720   -3.2370 hx        1 MOL      0.098905
     37 H17         2.3260    6.1670   -4.5830 hx        1 MOL      0.098905
     38 H18         5.0230    6.4170   -3.4470 hn        1 MOL      0.352694
     39 H19         4.5580    5.3910   -4.7200 hn        1 MOL      0.352694
     40 H20         4.6300    7.0090   -4.7880 hn        1 MOL      0.352694
     41 N4         -2.2390    4.4390   -0.6210 n         1 MOL     -0.458118
     42 C13        -3.4160    4.5730   -1.4870 c3        1 MOL     -0.034111
     43 C14        -4.7600    4.0480   -0.9340 c         1 MOL      0.390408
     44 O6         -5.8680    4.2790   -1.4500 o         1 MOL     -0.512679
     45 C15        -3.1830    3.9170   -2.8480 c3        1 MOL     -0.040201
     46 C16        -2.9610    2.4250   -2.7770 c         1 MOL      0.888147
     47 O7         -1.7790    2.0300   -2.9970 o         1 MOL     -0.834164
     48 O8         -3.8490    1.6370   -2.4940 o         1 MOL     -0.834164
     49 H21        -2.0410    3.5530   -0.1740 hn        1 MOL      0.243887
     50 H22        -3.5950    5.6170   -1.7240 h1        1 MOL      0.121025
     51 H23        -2.3240    4.3900   -3.3190 hc        1 MOL      0.006807
     52 H24        -3.9280    4.1120   -3.6270 hc        1 MOL      0.006807
     53 N5         -4.8020    3.2730    0.2200 n         1 MOL     -0.057986
     54 C17        -5.8760    3.1260    1.1210 c3        1 MOL     -0.096467
     55 C18        -6.8250    1.9230    0.8220 c         1 MOL      0.482050
     56 O9         -7.9720    1.9360    1.2890 o         1 MOL     -0.549282
     57 H25        -3.9170    3.0210    0.6400 hn        1 MOL      0.115819
     58 H26        -6.4050    4.0730    1.1060 h1        1 MOL      0.063066
     59 H27        -5.3790    2.9870    2.0780 h1        1 MOL      0.063066
     60 N6         -6.3750    0.8730    0.1390 n         1 MOL     -0.181002
     61 C19        -7.2030   -0.1790   -0.4250 c3        1 MOL      0.011927
     62 C20        -7.4190   -1.4270    0.5330 c         1 MOL      0.489945
     63 O10        -8.4650   -1.9610    0.6550 o         1 MOL     -0.513000
     64 C21        -6.5320   -0.5950   -1.7210 c3        1 MOL     -0.456208
     65 C22        -5.3010   -1.5020   -1.4890 c         1 MOL      0.674332
     66 N7         -5.4250   -2.7790   -1.7320 n         1 MOL     -0.737635
     67 O11        -4.1960   -1.0980   -1.0070 o         1 MOL     -0.479116
     68 H28        -5.3970    0.8040   -0.1000 hn        1 MOL      0.106192
     69 H29        -8.1560    0.2760   -0.6590 h1        1 MOL      0.127707
     70 H30        -6.1230    0.2900   -2.1990 hc        1 MOL      0.169850
     71 H31        -7.3200   -1.1130   -2.2710 hc        1 MOL      0.169850
     72 H32        -6.2510   -3.1360   -2.2070 hn        1 MOL      0.350638
     73 H33        -4.6720   -3.4410   -1.6110 hn        1 MOL      0.350638
     74 N8         -6.4370   -1.7520    1.3600 n         1 MOL     -0.300203
     75 C23        -6.2850   -2.9750    2.2030 c3        1 MOL     -0.055797
     76 C24        -4.8810   -3.6620    2.3090 c         1 MOL      0.435481
     77 O12        -4.7310   -4.5580    3.1380 o         1 MOL     -0.556937
     78 H34        -5.5400   -1.2800    1.4310 hn        1 MOL      0.195977
     79 H35        -6.9510   -3.7650    1.8250 h1        1 MOL      0.090992
     80 H36        -6.5490   -2.7690    3.2480 h1        1 MOL      0.090992
     81 N9         -3.9050   -3.2890    1.5580 n         1 MOL     -0.083172
     82 C25        -2.6740   -3.9650    1.5190 c3        1 MOL      0.017915
     83 C26        -1.4070   -3.1950    1.1250 c         1 MOL      0.470442
     84 O13        -1.5210   -2.3790    0.2030 o         1 MOL     -0.518187
     85 C27        -2.6850   -5.2750    0.7060 c3        1 MOL     -0.191037
     86 C28        -2.7750   -5.0510   -0.7970 ca        1 MOL      0.057752
     87 C29        -1.6650   -4.6730   -1.5660 ca        1 MOL     -0.119900
     88 C30        -3.9400   -5.4860   -1.5170 ca        1 MOL     -0.119900
     89 C31        -1.6760   -4.7880   -2.9560 ca        1 MOL     -0.279470
     90 C32        -3.9690   -5.4290   -2.9090 ca        1 MOL     -0.279470
     91 C33        -2.8600   -5.1910   -3.6790 ca        1 MOL      0.339507
     92 O14        -2.8650   -5.1950   -5.0460 oh        1 MOL     -0.493336
     93 H37        -4.0750   -2.6680    0.7710 hn        1 MOL      0.060049
     94 H38        -2.4940   -4.2200    2.5570 h1        1 MOL      0.072458
     95 H39        -3.5030   -5.9390    0.9850 hc        1 MOL      0.089917
     96 H40        -1.7770   -5.8280    0.9640 hc        1 MOL      0.089917
     97 H41        -0.7050   -4.4260   -1.1480 ha        1 MOL      0.131018
     98 H42        -4.8150   -5.7250   -0.9330 ha        1 MOL      0.131018
     99 H43        -0.7780   -4.5920   -3.5090 ha        1 MOL      0.143001
    100 H44        -4.9420   -5.6670   -3.3280 ha        1 MOL      0.143001
    101 H45        -1.9730   -5.0090   -5.3530 ho        1 MOL      0.371858
    102 N10        -0.2230   -3.5690    1.6940 n         1 MOL     -0.433778
    103 C34         1.0450   -2.8390    1.5190 c3        1 MOL      0.051262
    104 C35         2.1790   -3.7410    1.0170 c         1 MOL      0.381702
    105 O15         2.3790   -4.8560    1.5580 o         1 MOL     -0.526457
    106 C36         1.4400   -2.2080    2.8870 c3        1 MOL     -0.028785
    107 C37         0.4700   -0.9900    3.2080 c3        1 MOL      0.157426
    108 C38         2.8200   -1.6680    3.1170 c3        1 MOL     -0.055743
    109 C39         0.5820   -0.5180    4.6610 c3        1 MOL     -0.183383
    110 H46        -0.2710   -4.2670    2.4210 hn        1 MOL      0.299669
    111 H47         0.9300   -2.0730    0.7550 h1        1 MOL      0.055101
    112 H48         1.2850   -2.9050    3.7030 hc        1 MOL      0.048639
    113 H49        -0.5540   -1.3100    2.9950 hc        1 MOL     -0.026271
    114 H50         0.7130   -0.1890    2.5250 hc        1 MOL     -0.026271
    115 H51         3.0730   -1.5900    4.1640 hc        1 MOL      0.012351
    116 H52         3.5910   -2.3440    2.7440 hc        1 MOL      0.012351
    117 H53         3.0270   -0.7040    2.6480 hc        1 MOL      0.012351
    118 H54        -0.0160    0.3520    4.9450 hc        1 MOL      0.028355
    119 H55         0.4870   -1.3860    5.3170 hc        1 MOL      0.028355
    120 H56         1.5340   -0.0400    4.8940 hc        1 MOL      0.028355
    121 N11         2.9150   -3.2300    0.0580 n         1 MOL     -0.124297
    122 C40         4.1960   -3.7940   -0.4920 c3        1 MOL     -0.008239
    123 C41         5.4640   -3.1900    0.1430 c         1 MOL      0.520922
    124 O16         5.3320   -2.2430    0.8420 o         1 MOL     -0.320976
    125 C42         4.2090   -3.5230   -1.9590 c3        1 MOL     -0.089540
    126 O17         4.0500   -2.1420   -2.2050 oh        1 MOL     -0.464082
    127 H57         2.5760   -2.4260   -0.4520 hn        1 MOL      0.210095
    128 H58         4.1920   -4.8710   -0.3390 h1        1 MOL      0.073788
    129 H59         3.3330   -4.0340   -2.3460 h1        1 MOL      0.072462
    130 H60         5.1190   -3.8720   -2.4610 h1        1 MOL      0.072462
    131 H61         3.9820   -2.1540   -3.1700 ho        1 MOL      0.397980
    132 N12         6.6510   -3.7140   -0.1600 n         1 MOL     -0.543052
    133 C43         7.9320   -3.2270    0.4150 c3        1 MOL      0.116493
    134 C44         8.1300   -1.7810   -0.0790 c         1 MOL      0.468997
    135 O18         8.6980   -0.9130    0.5840 o         1 MOL     -0.494894
    136 C45         9.0800   -4.0860   -0.0550 c3        1 MOL     -0.250331
    137 H62         6.7960   -4.2510   -1.0040 hn        1 MOL      0.305598
    138 H63         7.9030   -3.2030    1.5010 h1        1 MOL      0.101308
    139 H64         8.8530   -5.1580   -0.0120 hc        1 MOL      0.084735
    140 H65         9.4160   -3.9400   -1.0830 hc        1 MOL      0.084735
    141 H66         9.9350   -3.8010    0.5560 hc        1 MOL      0.084735
    142 N13         7.6840   -1.4910   -1.3120 n         1 MOL     -0.356678
    143 C46         7.8000   -0.1720   -1.9390 c3        1 MOL      0.068677
    144 C47         6.9140    0.9200   -1.2720 c         1 MOL      0.376988
    145 O19         7.1890    2.0840   -1.0720 o         1 MOL     -0.524706
    146 C48         7.5670   -0.3090   -3.4490 c3        1 MOL     -0.313166
    147 H67         7.2520   -2.2020   -1.8840 hn        1 MOL      0.248803
    148 H68         8.8340    0.0790   -1.6860 h1        1 MOL      0.111472
    149 H69         8.3720   -0.9310   -3.8430 hc        1 MOL      0.095575
    150 H70         6.5690   -0.6910   -3.6610 hc        1 MOL      0.095575
    151 H71         7.7740    0.6190   -3.9890 hc        1 MOL      0.095575
    152 N14         5.7250    0.5330   -0.8290 n         1 MOL     -0.063067
    153 C49         4.8240    1.3300   -0.0120 c3        1 MOL     -0.048393
    154 C50         5.3320    1.5340    1.3980 c         1 MOL      0.528914
    155 O20         5.3270    2.6990    1.8290 o         1 MOL     -0.554690
    156 C51         3.4230    0.7230    0.0150 c3        1 MOL     -0.119052
    157 C52         2.6380    0.9810   -1.2480 c3        1 MOL      0.021635
    158 C53         1.1260    0.5890   -1.1860 c         1 MOL      0.677996
    159 O21         0.3500    0.9000   -0.2250 o         1 MOL     -0.751218
    160 O22         0.6440   -0.1450   -2.1020 o         1 MOL     -0.751218
    161 H72         5.5730   -0.4620   -0.7500 hn        1 MOL     -0.076356
    162 H73         4.6780    2.2910   -0.5050 h1        1 MOL      0.067800
    163 H74         2.8810    1.2440    0.8040 hc        1 MOL      0.080420
    164 H75         3.5090   -0.3410    0.2330 hc        1 MOL      0.080420
    165 H76         3.0380    0.5270   -2.1540 hc        1 MOL     -0.030671
    166 H77         2.7570    2.0520   -1.4480 hc        1 MOL     -0.030671
    167 N15         5.7920    0.4840    2.0660 n         1 MOL     -0.091515
    168 C54         6.4390    0.5220    3.3730 c3        1 MOL     -0.205439
    169 H78         7.1940   -0.2620    3.4270 h1        1 MOL      0.089072
    170 H79         6.9140    1.4930    3.5160 h1        1 MOL      0.089072
    171 H80         5.6940    0.3630    4.1530 h1        1 MOL      0.089072
    172 H81         5.6940   -0.4450    1.6740 hn        1 MOL      0.104385
    173 Ca1        -1.8880    0.1280   -1.2320 Ca        1 MOL      1.746349
    174 O23        -2.5730   -1.6550   -3.2560 oh        1 MOL     -0.845979
    175 H82        -1.7710   -1.8280   -3.7610 ho        1 MOL      0.405276
    176 H83        -3.2590   -2.1160   -3.7430 ho        1 MOL      0.405276
@<TRIPOS>BOND
     1    1    2 1   
     2    1    4 1   
     3    1    5 1   
     4    1    6 1   
     5    2    3 2   
     6    2    7 1   
     7    7    8 1   
     8    7   15 1   
     9    8    9 1   
    10    8   11 1   
    11    8   16 1   
    12    9   10 2   
    13    9   19 1   
    14   11   12 1   
    15   11   17 1   
    16   11   18 1   
    17   12   13 1   
    18   12   14 1   
    19   19   20 1   
    20   19   28 1   
    21   20   21 1   
    22   20   23 1   
    23   20   29 1   
    24   21   22 2   
    25   21   41 1   
    26   23   24 1   
    27   23   30 1   
    28   23   31 1   
    29   24   25 1   
    30   24   32 1   
    31   24   33 1   
    32   25   26 1   
    33   25   34 1   
    34   25   35 1   
    35   26   27 1   
    36   26   36 1   
    37   26   37 1   
    38   27   38 1   
    39   27   39 1   
    40   27   40 1   
    41   41   42 1   
    42   41   49 1   
    43   42   43 1   
    44   42   45 1   
    45   42   50 1   
    46   43   44 2   
    47   43   53 1   
    48   45   46 1   
    49   45   51 1   
    50   45   52 1   
    51   46   47 1   
    52   46   48 1   
    53   53   54 1   
    54   53   57 1   
    55   54   55 1   
    56   54   58 1   
    57   54   59 1   
    58   55   56 2   
    59   55   60 1   
    60   60   61 1   
    61   60   68 1   
    62   61   62 1   
    63   61   64 1   
    64   61   69 1   
    65   62   63 2   
    66   62   74 1   
    67   64   65 1   
    68   64   70 1   
    69   64   71 1   
    70   65   66 1   
    71   65   67 2   
    72   66   72 1   
    73   66   73 1   
    74   74   75 1   
    75   74   78 1   
    76   75   76 1   
    77   75   79 1   
    78   75   80 1   
    79   76   77 2   
    80   76   81 1   
    81   81   82 1   
    82   81   93 1   
    83   82   83 1   
    84   82   85 1   
    85   82   94 1   
    86   83   84 2   
    87   83  102 1   
    88   85   86 1   
    89   85   95 1   
    90   85   96 1   
    91   86   87 ar  
    92   86   88 ar  
    93   87   89 ar  
    94   87   97 1   
    95   88   90 ar  
    96   88   98 1   
    97   89   91 ar  
    98   89   99 1   
    99   90   91 ar  
   100   90  100 1   
   101   91   92 1   
   102   92  101 1   
   103  102  103 1   
   104  102  110 1   
   105  103  104 1   
   106  103  106 1   
   107  103  111 1   
   108  104  105 2   
   109  104  121 1   
   110  106  107 1   
   111  106  108 1   
   112  106  112 1   
   113  107  109 1   
   114  107  113 1   
   115  107  114 1   
   116  108  115 1   
   117  108  116 1   
   118  108  117 1   
   119  109  118 1   
   120  109  119 1   
   121  109  120 1   
   122  121  122 1   
   123  121  127 1   
   124  122  123 1   
   125  122  125 1   
   126  122  128 1   
   127  123  124 2   
   128  123  132 1   
   129  125  126 1   
   130  125  129 1   
   131  125  130 1   
   132  126  131 1   
   133  132  133 1   
   134  132  137 1   
   135  133  134 1   
   136  133  136 1   
   137  133  138 1   
   138  134  135 2   
   139  134  142 1   
   140  136  139 1   
   141  136  140 1   
   142  136  141 1   
   143  142  143 1   
   144  142  147 1   
   145  143  144 1   
   146  143  146 1   
   147  143  148 1   
   148  144  145 2   
   149  144  152 1   
   150  146  149 1   
   151  146  150 1   
   152  146  151 1   
   153  152  153 1   
   154  152  161 1   
   155  153  154 1   
   156  153  156 1   
   157  153  162 1   
   158  154  155 2   
   159  154  167 1   
   160  156  157 1   
   161  156  163 1   
   162  156  164 1   
   163  157  158 1   
   164  157  165 1   
   165  157  166 1   
   166  158  159 1   
   167  158  160 1   
   168  167  168 1   
   169  167  172 1   
   170  168  169 1   
   171  168  170 1   
   172  168  171 1   
   173  174  175 1   
   174  174  176 1   
@<TRIPOS>SUBSTRUCTURE
     1 MOL         1 TEMP              0 ****  ****    0 ROOT
