@<TRIPOS>MOLECULE
MOL
  182   178     1     0     0
SMALL
resp


@<TRIPOS>ATOM
      1 C1         -0.9070   -3.2730    5.3670 c3        1 MOL     -0.388448
      2 C2         -0.4490   -2.6460    4.0310 c         1 MOL      0.686706
      3 O1         -1.2060   -2.5810    3.0370 o         1 MOL     -0.589916
      4 H1         -0.9690   -4.3560    5.2570 hc        1 MOL      0.102957
      5 H2         -0.1890   -3.0280    6.1490 hc        1 MOL      0.102957
      6 H3         -1.8870   -2.8790    5.6370 hc        1 MOL      0.102957
      7 N1          0.8310   -2.3120    4.0490 n         1 MOL     -0.606208
      8 C3          1.6130   -2.1520    2.7520 c3        1 MOL     -0.030094
      9 C4          2.3790   -3.4140    2.4500 c         1 MOL      0.671165
     10 O2          3.5170   -3.5980    2.8960 o         1 MOL     -0.534793
     11 C5          2.4840   -0.8710    2.9180 c3        1 MOL     -0.217348
     12 C6          3.1990   -0.5860    1.5400 c         1 MOL      0.825487
     13 O3          2.5810   -0.5240    0.4600 o         1 MOL     -0.783203
     14 O4          4.3760   -0.3060    1.6540 o         1 MOL     -0.783203
     15 H4          1.3410   -2.1700    4.9120 hn        1 MOL      0.363736
     16 H5          0.8620   -2.0140    1.9810 h1        1 MOL      0.030442
     17 H6          3.2000   -1.1020    3.7130 hc        1 MOL      0.072466
     18 H7          1.8150   -0.0460    3.1480 hc        1 MOL      0.072466
     19 N2          1.7400   -4.3740    1.7770 n         1 MOL     -0.531095
     20 C7          2.4520   -5.7090    1.5550 c3        1 MOL      0.093661
     21 C8          3.4860   -5.7190    0.4340 c         1 MOL      0.351495
     22 O5          4.4230   -6.5610    0.4270 o         1 MOL     -0.520369
     23 C9          1.4260   -6.7740    1.3220 c3        1 MOL     -0.117174
     24 C10         0.7360   -6.6630    0.0100 c3        1 MOL     -0.107841
     25 C11        -0.2570   -7.8980   -0.2780 c3        1 MOL      0.151842
     26 C12        -0.7710   -7.8250   -1.6800 c3        1 MOL     -0.291653
     27 N3         -1.6630   -6.6310   -1.9380 n4        1 MOL     -0.132760
     28 H8          0.8300   -4.1700    1.3860 hn        1 MOL      0.365190
     29 H9          3.0590   -5.9700    2.4220 h1        1 MOL      0.112632
     30 H10         0.6400   -6.6590    2.0810 hc        1 MOL      0.058759
     31 H11         1.8100   -7.7970    1.3870 hc        1 MOL      0.058759
     32 H12         1.4960   -6.8210   -0.7530 hc        1 MOL      0.059401
     33 H13         0.1860   -5.7420   -0.1660 hc        1 MOL      0.059401
     34 H14        -1.0630   -7.8800    0.4550 hc        1 MOL      0.027609
     35 H15         0.2370   -8.8600   -0.1370 hc        1 MOL      0.027609
     36 H16        -1.4690   -8.6470   -1.8590 hx        1 MOL      0.161171
     37 H17         0.0950   -7.7260   -2.3270 hx        1 MOL      0.161171
     38 H18        -2.3590   -6.3460   -1.2630 hn        1 MOL      0.275400
     39 H19        -1.1950   -5.7680   -2.1760 hn        1 MOL      0.275400
     40 H20        -2.1880   -6.8310   -2.7730 hn        1 MOL      0.275400
     41 N4          3.3820   -4.8250   -0.5440 n         1 MOL     -0.211424
     42 C13         4.3790   -4.6820   -1.6700 c3        1 MOL     -0.041244
     43 C14         5.6150   -3.7930   -1.3330 c         1 MOL      0.373667
     44 O6          6.5800   -3.6530   -2.1040 o         1 MOL     -0.506423
     45 C15         3.6570   -4.0380   -2.8710 c3        1 MOL     -0.175745
     46 C16         2.8370   -2.8260   -2.4720 c         1 MOL      0.753958
     47 O7          1.6440   -2.9330   -2.1670 o         1 MOL     -0.735272
     48 O8          3.3330   -1.7080   -2.4450 o         1 MOL     -0.735272
     49 H21         2.5690   -4.2260   -0.5480 hn        1 MOL      0.105256
     50 H22         4.8190   -5.6410   -1.9360 h1        1 MOL      0.131055
     51 H23         2.9950   -4.7760   -3.3150 hc        1 MOL      0.043887
     52 H24         4.4210   -3.8180   -3.6210 hc        1 MOL      0.043887
     53 N5          5.6220   -3.2130   -0.1450 n         1 MOL      0.028537
     54 C17         6.7970   -2.6340    0.5100 c3        1 MOL     -0.475476
     55 C18         7.3160   -1.3640   -0.1630 c         1 MOL      0.768698
     56 O9          8.4700   -1.2730   -0.5980 o         1 MOL     -0.578616
     57 H25         4.7810   -3.3890    0.3930 hn        1 MOL      0.189859
     58 H26         7.4740   -3.4830    0.5780 h1        1 MOL      0.168094
     59 H27         6.3720   -2.2030    1.4140 h1        1 MOL      0.168094
     60 N6          6.4490   -0.3260   -0.1430 n         1 MOL     -0.495976
     61 C19         6.5130    1.0240   -0.8210 c3        1 MOL     -0.053698
     62 C20         6.2260    2.3030    0.0690 c         1 MOL      0.464039
     63 O10         6.7830    3.3360   -0.3440 o         1 MOL     -0.512689
     64 C21         5.6420    0.9220   -2.0870 c3        1 MOL     -0.086238
     65 C22         4.3820    1.7450   -2.1270 c         1 MOL      0.592391
     66 N7          4.4000    2.7360   -2.9650 n         1 MOL     -0.694103
     67 O11         3.4060    1.6790   -1.3870 o         1 MOL     -0.534918
     68 H28         5.5900   -0.5210    0.3570 hn        1 MOL      0.195153
     69 H29         7.5770    1.1920   -1.0080 h1        1 MOL      0.123058
     70 H30         5.2250   -0.0730   -2.2520 hc        1 MOL      0.073613
     71 H31         6.2380    1.1070   -2.9870 hc        1 MOL      0.073613
     72 H32         5.1500    2.9550   -3.6030 hn        1 MOL      0.336070
     73 H33         3.5740    3.3300   -2.9680 hn        1 MOL      0.336070
     74 N8          5.6600    2.1520    1.2790 n         1 MOL     -0.330846
     75 C23         5.4160    3.2860    2.2540 c3        1 MOL     -0.208491
     76 C24         3.9650    3.8750    2.1420 c         1 MOL      0.628032
     77 O12         3.6870    4.7800    2.9370 o         1 MOL     -0.567348
     78 H34         5.2400    1.2730    1.5210 hn        1 MOL      0.363824
     79 H35         6.2340    3.9950    2.2310 h1        1 MOL      0.133120
     80 H36         5.5010    2.8060    3.2300 h1        1 MOL      0.133120
     81 N9          3.1520    3.4450    1.1810 n         1 MOL     -0.626212
     82 C25         1.8310    3.9420    0.8950 c3        1 MOL      0.516066
     83 C26         0.7100    2.8530    0.7430 c         1 MOL      0.249693
     84 O13         0.9480    1.8440    0.1440 o         1 MOL     -0.484688
     85 C27         1.8450    4.7570   -0.3920 c3        1 MOL      0.056007
     86 C28         2.8940    5.9300   -0.3970 ca        1 MOL      0.011807
     87 C29         4.2860    5.6710   -0.4780 ca        1 MOL     -0.204617
     88 C30         2.4950    7.2630   -0.1550 ca        1 MOL     -0.204617
     89 C31         5.2440    6.6840   -0.3300 ca        1 MOL     -0.201270
     90 C32         3.4750    8.2470    0.0590 ca        1 MOL     -0.201270
     91 C33         4.8680    8.0170   -0.0780 ca        1 MOL      0.307126
     92 O14         5.7480    9.0160    0.0600 oh        1 MOL     -0.439828
     93 H37         3.5340    2.7470    0.5600 hn        1 MOL      0.392208
     94 H38         1.5460    4.6060    1.7060 h1        1 MOL     -0.029840
     95 H39         0.8750    5.2180   -0.5610 hc        1 MOL     -0.025141
     96 H40         2.1540    4.1120   -1.2160 hc        1 MOL     -0.025141
     97 H41         4.7450    4.6980   -0.4890 ha        1 MOL      0.118969
     98 H42         1.4520    7.5470   -0.2090 ha        1 MOL      0.118969
     99 H43         6.3110    6.5130   -0.2930 ha        1 MOL      0.122968
    100 H44         3.2490    9.2830    0.2090 ha        1 MOL      0.122968
    101 H45         5.2470    9.8330    0.0330 ho        1 MOL      0.329148
    102 N10        -0.5750    3.1260    1.1700 n         1 MOL     -0.438303
    103 C34        -1.7590    2.2670    0.9410 c3        1 MOL      0.146826
    104 C35        -2.8930    3.0360    0.2750 c         1 MOL      0.490246
    105 O15        -3.1360    4.1770    0.6010 o         1 MOL     -0.534119
    106 C36        -2.2020    1.6680    2.2930 c3        1 MOL     -0.123742
    107 C37        -2.4790    2.7000    3.4240 c3        1 MOL      0.050800
    108 C38        -1.1190    0.6210    2.6760 c3        1 MOL     -0.057948
    109 C39        -3.3420    2.0870    4.4930 c3        1 MOL     -0.187645
    110 H46        -0.7260    4.0410    1.5530 hn        1 MOL      0.247257
    111 H47        -1.3370    1.4320    0.3720 h1        1 MOL     -0.035330
    112 H48        -3.1480    1.1790    2.0460 hc        1 MOL      0.065176
    113 H49        -2.9820    3.5740    3.0140 hc        1 MOL      0.028011
    114 H50        -1.5460    3.0980    3.8160 hc        1 MOL      0.028011
    115 H51        -1.4440    0.0610    3.5410 hc        1 MOL      0.057120
    116 H52        -0.9130   -0.0760    1.8670 hc        1 MOL      0.057120
    117 H53        -0.2380    1.1130    3.0930 hc        1 MOL      0.057120
    118 H54        -4.1320    1.5170    3.9990 hc        1 MOL      0.040411
    119 H55        -2.7980    1.5060    5.2450 hc        1 MOL      0.040411
    120 H56        -3.7010    2.9320    5.0730 hc        1 MOL      0.040411
    121 N11        -3.6450    2.3550   -0.5960 n         1 MOL     -0.299209
    122 C40        -4.9610    2.8860   -1.1400 c3        1 MOL     -0.001598
    123 C41        -6.2480    2.6320   -0.3200 c         1 MOL      0.518513
    124 O16        -6.2650    1.7620    0.5300 o         1 MOL     -0.472342
    125 C42        -5.1100    2.4660   -2.5880 c3        1 MOL     -0.103238
    126 O17        -5.4720    1.1240   -2.6080 oh        1 MOL     -0.440943
    127 H57        -3.2980    1.4760   -0.9580 hn        1 MOL      0.246311
    128 H58        -4.8520    3.9750   -1.1700 h1        1 MOL      0.054107
    129 H59        -4.0940    2.5550   -2.9660 h1        1 MOL      0.092344
    130 H60        -5.8010    3.0530   -3.1730 h1        1 MOL      0.092344
    131 H61        -5.1570    0.7590   -3.4440 ho        1 MOL      0.376803
    132 N12        -7.3770    3.2050   -0.7440 n         1 MOL     -0.431961
    133 C43        -8.7020    2.8040   -0.1460 c3        1 MOL      0.076299
    134 C44        -9.2700    1.4030   -0.5980 c         1 MOL      0.450910
    135 O18       -10.2900    0.9690   -0.0660 o         1 MOL     -0.514939
    136 C45        -9.8580    3.9160   -0.4700 c3        1 MOL     -0.357271
    137 H62        -7.3040    3.9730   -1.3940 hn        1 MOL      0.287645
    138 H63        -8.4840    2.8340    0.9190 h1        1 MOL      0.108693
    139 H64        -9.5280    4.9120   -0.1660 hc        1 MOL      0.112496
    140 H65       -10.0190    3.9790   -1.5460 hc        1 MOL      0.112496
    141 H66       -10.7880    3.5280   -0.0640 hc        1 MOL      0.112496
    142 N13        -8.4820    0.6720   -1.3440 n         1 MOL     -0.313209
    143 C46        -8.6570   -0.7270   -1.7340 c3        1 MOL      0.273469
    144 C47        -7.6970   -1.5850   -0.9480 c         1 MOL      0.300499
    145 O19        -8.0730   -2.7670   -0.7300 o         1 MOL     -0.536222
    146 C48        -8.5210   -0.8810   -3.2350 c3        1 MOL     -0.264896
    147 H67        -7.7610    1.1370   -1.8790 hn        1 MOL      0.182441
    148 H68        -9.5930   -1.1520   -1.3640 h1        1 MOL      0.039676
    149 H69        -9.0730   -0.1110   -3.7620 hc        1 MOL      0.066342
    150 H70        -7.4610   -0.7610   -3.4440 hc        1 MOL      0.066342
    151 H71        -8.7220   -1.9000   -3.5520 hc        1 MOL      0.066342
    152 N14        -6.5220   -1.1080   -0.6110 n         1 MOL      0.068973
    153 C49        -5.5630   -1.8690    0.1900 c3        1 MOL     -0.320892
    154 C50        -6.0970   -1.9350    1.6510 c         1 MOL      0.484910
    155 O20        -5.8220   -2.8470    2.3950 o         1 MOL     -0.545770
    156 C51        -4.1690   -1.1660    0.1350 c3        1 MOL      0.224686
    157 C52        -3.4300   -1.5840   -1.1660 c3        1 MOL     -0.258538
    158 C53        -2.1340   -0.7500   -1.4060 c         1 MOL      0.939064
    159 O21        -2.2950    0.3280   -2.0700 o         1 MOL     -0.770785
    160 O22        -1.0410   -1.2000   -1.0320 o         1 MOL     -0.770785
    161 H72        -6.2170   -0.2720   -1.0930 hn        1 MOL      0.029836
    162 H73        -5.4380   -2.8860   -0.1990 h1        1 MOL      0.136605
    163 H74        -3.5800   -1.4130    1.0190 hc        1 MOL     -0.001320
    164 H75        -4.3310   -0.0950    0.2210 hc        1 MOL     -0.001320
    165 H76        -4.1780   -1.5790   -1.9480 hc        1 MOL      0.010484
    166 H77        -3.2440   -2.6600   -1.1800 hc        1 MOL      0.010484
    167 N15        -6.9870   -1.0360    1.9440 n         1 MOL     -0.064938
    168 C54        -7.5160   -0.8590    3.2170 c3        1 MOL     -0.315684
    169 H78        -7.5720   -1.8210    3.7240 h1        1 MOL      0.114246
    170 H79        -6.8750   -0.1850    3.7870 h1        1 MOL      0.114246
    171 H80        -8.5160   -0.4310    3.1400 h1        1 MOL      0.114246
    172 H81        -7.1460   -0.3330    1.2360 hn        1 MOL      0.147723
    173 Ca1         1.3210   -0.1460   -1.7010 Ca        1 MOL      1.781053
    174 O23         2.0660    0.5220   -4.3300 oh        1 MOL     -0.820972
    175 H82         1.2740    0.8100   -4.7910 ho        1 MOL      0.394178
    176 H83         2.6730    0.2770   -5.0330 ho        1 MOL      0.394178
    177 O24        -0.0900    2.0380   -2.5390 oh        1 MOL     -0.820972
    178 H84        -1.0160    1.8110   -2.4200 ho        1 MOL      0.394178
    179 H85        -0.1130    2.8500   -3.0470 ho        1 MOL      0.394178
    180 O25        -0.1570   -1.2670   -4.0130 oh        1 MOL     -0.820972
    181 H86         0.5920   -1.3710   -4.6030 ho        1 MOL      0.394178
    182 H87        -0.9240   -1.3290   -4.5830 ho        1 MOL      0.394178
@<TRIPOS>BOND
     1    1    2 1   
     2    1    4 1   
     3    1    5 1   
     4    1    6 1   
     5    2    3 2   
     6    2    7 1   
     7    7    8 1   
     8    7   15 1   
     9    8    9 1   
    10    8   11 1   
    11    8   16 1   
    12    9   10 2   
    13    9   19 1   
    14   11   12 1   
    15   11   17 1   
    16   11   18 1   
    17   12   13 1   
    18   12   14 1   
    19   19   20 1   
    20   19   28 1   
    21   20   21 1   
    22   20   23 1   
    23   20   29 1   
    24   21   22 2   
    25   21   41 1   
    26   23   24 1   
    27   23   30 1   
    28   23   31 1   
    29   24   25 1   
    30   24   32 1   
    31   24   33 1   
    32   25   26 1   
    33   25   34 1   
    34   25   35 1   
    35   26   27 1   
    36   26   36 1   
    37   26   37 1   
    38   27   38 1   
    39   27   39 1   
    40   27   40 1   
    41   41   42 1   
    42   41   49 1   
    43   42   43 1   
    44   42   45 1   
    45   42   50 1   
    46   43   44 2   
    47   43   53 1   
    48   45   46 1   
    49   45   51 1   
    50   45   52 1   
    51   46   47 1   
    52   46   48 1   
    53   53   54 1   
    54   53   57 1   
    55   54   55 1   
    56   54   58 1   
    57   54   59 1   
    58   55   56 2   
    59   55   60 1   
    60   60   61 1   
    61   60   68 1   
    62   61   62 1   
    63   61   64 1   
    64   61   69 1   
    65   62   63 2   
    66   62   74 1   
    67   64   65 1   
    68   64   70 1   
    69   64   71 1   
    70   65   66 1   
    71   65   67 2   
    72   66   72 1   
    73   66   73 1   
    74   74   75 1   
    75   74   78 1   
    76   75   76 1   
    77   75   79 1   
    78   75   80 1   
    79   76   77 2   
    80   76   81 1   
    81   81   82 1   
    82   81   93 1   
    83   82   83 1   
    84   82   85 1   
    85   82   94 1   
    86   83   84 2   
    87   83  102 1   
    88   85   86 1   
    89   85   95 1   
    90   85   96 1   
    91   86   87 ar  
    92   86   88 ar  
    93   87   89 ar  
    94   87   97 1   
    95   88   90 ar  
    96   88   98 1   
    97   89   91 ar  
    98   89   99 1   
    99   90   91 ar  
   100   90  100 1   
   101   91   92 1   
   102   92  101 1   
   103  102  103 1   
   104  102  110 1   
   105  103  104 1   
   106  103  106 1   
   107  103  111 1   
   108  104  105 2   
   109  104  121 1   
   110  106  107 1   
   111  106  108 1   
   112  106  112 1   
   113  107  109 1   
   114  107  113 1   
   115  107  114 1   
   116  108  115 1   
   117  108  116 1   
   118  108  117 1   
   119  109  118 1   
   120  109  119 1   
   121  109  120 1   
   122  121  122 1   
   123  121  127 1   
   124  122  123 1   
   125  122  125 1   
   126  122  128 1   
   127  123  124 2   
   128  123  132 1   
   129  125  126 1   
   130  125  129 1   
   131  125  130 1   
   132  126  131 1   
   133  132  133 1   
   134  132  137 1   
   135  133  134 1   
   136  133  136 1   
   137  133  138 1   
   138  134  135 2   
   139  134  142 1   
   140  136  139 1   
   141  136  140 1   
   142  136  141 1   
   143  142  143 1   
   144  142  147 1   
   145  143  144 1   
   146  143  146 1   
   147  143  148 1   
   148  144  145 2   
   149  144  152 1   
   150  146  149 1   
   151  146  150 1   
   152  146  151 1   
   153  152  153 1   
   154  152  161 1   
   155  153  154 1   
   156  153  156 1   
   157  153  162 1   
   158  154  155 2   
   159  154  167 1   
   160  156  157 1   
   161  156  163 1   
   162  156  164 1   
   163  157  158 1   
   164  157  165 1   
   165  157  166 1   
   166  158  159 1   
   167  158  160 1   
   168  167  168 1   
   169  167  172 1   
   170  168  169 1   
   171  168  170 1   
   172  168  171 1   
   173  174  175 1   
   174  174  176 1   
   175  177  178 1   
   176  177  179 1   
   177  180  181 1   
   178  180  182 1   
@<TRIPOS>SUBSTRUCTURE
     1 MOL         1 TEMP              0 ****  ****    0 ROOT
