@<TRIPOS>MOLECULE
MOL
  189   185     1     0     0
SMALL
resp


@<TRIPOS>ATOM
      1 C1          0.4700    1.8050    5.6940 c3        1 MOL     -0.332314
      2 C2         -0.1800    1.7550    4.3230 c         1 MOL      0.762416
      3 O1          0.3040    2.4520    3.4370 o         1 MOL     -0.650150
      4 H1         -0.2970    1.9500    6.4540 hc        1 MOL      0.084559
      5 H2          0.9950    0.8700    5.8820 hc        1 MOL      0.084559
      6 H3          1.1780    2.6330    5.7300 hc        1 MOL      0.084559
      7 N1         -1.2030    0.9430    4.0580 n         1 MOL     -0.613591
      8 C3         -1.8960    0.8540    2.7270 c3        1 MOL      0.151839
      9 C4         -2.5290    2.2390    2.3960 c         1 MOL      0.468709
     10 O2         -3.4810    2.6380    3.0430 o         1 MOL     -0.571795
     11 C5         -2.8890   -0.3060    2.6870 c3        1 MOL     -0.173294
     12 C6         -3.5750   -0.4170    1.3350 c         1 MOL      0.711366
     13 O3         -2.8920   -0.0320    0.3360 o         1 MOL     -0.669710
     14 O4         -4.7020   -0.9340    1.2660 o         1 MOL     -0.669710
     15 H4         -1.7030    0.5730    4.8480 hn        1 MOL      0.321578
     16 H5         -1.1440    0.7700    1.9420 h1        1 MOL      0.006766
     17 H6         -3.6110   -0.0530    3.4560 hc        1 MOL      0.038806
     18 H7         -2.3860   -1.2370    2.9600 hc        1 MOL      0.038806
     19 N2         -1.9220    2.9450    1.4350 n         1 MOL     -0.103005
     20 C7         -2.0600    4.3830    1.1880 c3        1 MOL     -0.310399
     21 C8         -2.9460    4.7670   -0.0290 c         1 MOL      0.452642
     22 O5         -3.4200    5.9230   -0.0850 o         1 MOL     -0.611019
     23 C9         -0.6140    4.9790    1.1320 c3        1 MOL      0.153835
     24 C10        -0.4090    6.4700    1.2200 c3        1 MOL     -0.066243
     25 C11        -0.8380    7.0510    2.5630 c3        1 MOL      0.035740
     26 C12        -2.3090    7.3720    2.7320 c3        1 MOL      0.061767
     27 N3         -2.5990    7.9900    4.0630 n4        1 MOL     -0.424969
     28 H8         -1.2000    2.4870    0.8920 hn        1 MOL      0.284742
     29 H9         -2.5430    4.8110    2.0650 h1        1 MOL      0.126298
     30 H10        -0.2810    4.6500    0.1550 hc        1 MOL      0.020329
     31 H11         0.0940    4.4650    1.8020 hc        1 MOL      0.020329
     32 H12        -1.0570    6.9570    0.4850 hc        1 MOL      0.027334
     33 H13         0.6150    6.7140    0.9340 hc        1 MOL      0.027334
     34 H14        -0.3200    8.0010    2.6660 hc        1 MOL     -0.005393
     35 H15        -0.5760    6.3930    3.3990 hc        1 MOL     -0.005393
     36 H16        -2.7910    6.4040    2.6410 hx        1 MOL      0.095874
     37 H17        -2.5400    8.0780    1.9410 hx        1 MOL      0.095874
     38 H18        -2.3950    7.3500    4.8120 hn        1 MOL      0.336743
     39 H19        -1.9960    8.7930    4.2080 hn        1 MOL      0.336743
     40 H20        -3.5680    8.2540    4.1860 hn        1 MOL      0.336743
     41 N4         -3.1630    3.8260   -0.9320 n         1 MOL     -0.114736
     42 C13        -4.2400    3.8850   -1.9620 c3        1 MOL      0.017223
     43 C14        -5.3930    2.8940   -1.7100 c         1 MOL      0.372769
     44 O6         -6.3700    2.8030   -2.4650 o         1 MOL     -0.494909
     45 C15        -3.6220    3.6410   -3.3410 c3        1 MOL     -0.258343
     46 C16        -2.8020    2.3290   -3.4340 c         1 MOL      0.838437
     47 O7         -3.0000    1.4460   -2.5580 o         1 MOL     -0.741162
     48 O8         -1.7750    2.3410   -4.1280 o         1 MOL     -0.741162
     49 H21        -2.7740    2.8970   -0.8340 hn        1 MOL      0.112229
     50 H22        -4.6440    4.9000   -1.9910 h1        1 MOL      0.109627
     51 H23        -2.9480    4.4510   -3.6150 hc        1 MOL      0.058214
     52 H24        -4.4290    3.6720   -4.0750 hc        1 MOL      0.058214
     53 N5         -5.3950    2.1220   -0.5940 n         1 MOL     -0.211065
     54 C17        -6.6030    1.4370   -0.0000 c3        1 MOL     -0.371300
     55 C18        -7.1210    0.2730   -0.7880 c         1 MOL      0.560558
     56 O9         -8.3100   -0.0490   -0.6980 o         1 MOL     -0.577613
     57 H25        -4.5300    2.1440   -0.0760 hn        1 MOL      0.181559
     58 H26        -7.3660    2.2220    0.0340 h1        1 MOL      0.167716
     59 H27        -6.4300    1.0590    1.0110 h1        1 MOL      0.167716
     60 N6         -6.2290   -0.3880   -1.5030 n         1 MOL     -0.210985
     61 C19        -6.5590   -1.6170   -2.2470 c3        1 MOL     -0.018423
     62 C20        -6.6980   -2.7870   -1.3150 c         1 MOL      0.410205
     63 O10        -7.5390   -3.6000   -1.6610 o         1 MOL     -0.560677
     64 C21        -5.5270   -1.9060   -3.3540 c3        1 MOL     -0.178248
     65 C22        -4.0650   -1.7440   -3.0010 c         1 MOL      0.692169
     66 O11        -3.2960   -1.1000   -3.7490 o         1 MOL     -0.703508
     67 O12        -3.7160   -2.2300   -1.9220 o         1 MOL     -0.703508
     68 H28        -5.2520   -0.1710   -1.4110 hn        1 MOL      0.229247
     69 H29        -7.5340   -1.4380   -2.6920 h1        1 MOL      0.109322
     70 H30        -5.7510   -1.0600   -4.0090 hc        1 MOL      0.049039
     71 H31        -5.7220   -2.7980   -3.9410 hc        1 MOL      0.049039
     72 N7         -6.0550   -2.8600   -0.1360 n         1 MOL     -0.106879
     73 C23        -6.1000   -3.9900    0.7490 c3        1 MOL     -0.068382
     74 C24        -4.7940   -4.5860    1.0560 c         1 MOL      0.544308
     75 O13        -4.7910   -5.7520    1.4790 o         1 MOL     -0.585723
     76 H32        -5.5100   -2.0600    0.1730 hn        1 MOL      0.165038
     77 H33        -6.7990   -4.7190    0.3310 h1        1 MOL      0.060216
     78 H34        -6.5100   -3.6130    1.6900 h1        1 MOL      0.060216
     79 N8         -3.6420   -3.9720    0.7350 n         1 MOL     -0.212776
     80 C25        -2.3950   -4.7200    0.7760 c3        1 MOL     -0.221847
     81 C26        -1.2820   -3.6530    0.9760 c         1 MOL      0.627651
     82 O14        -1.2120   -2.7120    0.2080 o         1 MOL     -0.587272
     83 C27        -2.1280   -5.5460   -0.5050 c3        1 MOL      0.421823
     84 C28        -2.5230   -7.0140   -0.4190 c3        1 MOL     -0.440114
     85 O15        -2.7140   -5.0330   -1.6810 oh        1 MOL     -0.612182
     86 H35        -3.6370   -3.0350    0.3440 hn        1 MOL      0.134236
     87 H36        -2.3490   -5.3940    1.6210 h1        1 MOL      0.113738
     88 H37        -1.0460   -5.4930   -0.6490 h1        1 MOL      0.020033
     89 H38        -3.6210   -4.8010   -1.4440 ho        1 MOL      0.422128
     90 H39        -1.9880   -7.6080    0.3260 hc        1 MOL      0.110882
     91 H40        -3.5950   -7.0150   -0.2050 hc        1 MOL      0.110882
     92 H41        -2.3970   -7.5350   -1.3640 hc        1 MOL      0.110882
     93 N9         -0.2670   -3.8720    1.8470 n         1 MOL     -0.576314
     94 C29         0.9370   -3.0190    2.0570 c3        1 MOL      0.015750
     95 C30         2.0870   -3.5600    1.1390 c         1 MOL      0.521208
     96 O16         2.5020   -4.7050    1.2590 o         1 MOL     -0.556697
     97 C31         1.3920   -3.1690    3.5030 c3        1 MOL      0.137293
     98 C32         0.1940   -2.9660    4.5050 c3        1 MOL      0.280507
     99 C33         2.5350   -2.1890    3.9230 c3        1 MOL     -0.293771
    100 C34         0.4130   -3.1980    5.9810 c3        1 MOL     -0.407703
    101 H42        -0.2190   -4.7340    2.3810 hn        1 MOL      0.299743
    102 H43         0.7440   -1.9490    1.9130 h1        1 MOL      0.192742
    103 H44         1.7200   -4.2020    3.6480 hc        1 MOL     -0.022466
    104 H45        -0.5790   -3.6930    4.2480 hc        1 MOL     -0.059873
    105 H46        -0.2290   -1.9840    4.3270 hc        1 MOL     -0.059873
    106 H47         3.3860   -2.2870    3.2510 hc        1 MOL      0.057697
    107 H48         2.0180   -1.2300    3.8510 hc        1 MOL      0.057697
    108 H49         2.8690   -2.2600    4.9560 hc        1 MOL      0.057697
    109 H50         0.6780   -4.2510    6.0790 hc        1 MOL      0.093202
    110 H51         1.3000   -2.6140    6.2420 hc        1 MOL      0.093202
    111 H52        -0.4840   -3.0130    6.5670 hc        1 MOL      0.093202
    112 N10         2.5450   -2.7160    0.2260 n         1 MOL     -0.157737
    113 C35         3.7160   -2.8500   -0.7030 c3        1 MOL     -0.046937
    114 C36         4.9890   -2.5820   -0.0020 c         1 MOL      0.393837
    115 O17         5.0160   -1.8800    1.0240 o         1 MOL     -0.332110
    116 C37         3.5870   -2.0090   -1.9680 c3        1 MOL     -0.048854
    117 C38         2.4240   -2.4630   -2.8550 c3        1 MOL     -0.228280
    118 O18         3.4050   -0.6430   -1.6400 oh        1 MOL     -0.399788
    119 H53         2.0920   -1.8210    0.3090 hn        1 MOL      0.109842
    120 H54         3.8480   -3.9180   -0.9270 h1        1 MOL      0.090987
    121 H55         4.5280   -2.0570   -2.5220 h1        1 MOL      0.129112
    122 H56         2.4870   -0.5490   -1.3510 ho        1 MOL      0.287065
    123 H57         2.4040   -1.9030   -3.7850 hc        1 MOL      0.091116
    124 H58         2.5940   -3.4720   -3.2260 hc        1 MOL      0.091116
    125 H59         1.4810   -2.5650   -2.3080 hc        1 MOL      0.091116
    126 N11         6.1070   -2.9400   -0.6860 n         1 MOL     -0.381227
    127 C39         7.4340   -2.3610   -0.2950 c3        1 MOL     -0.080231
    128 C40         7.3680   -0.8290   -0.1930 c         1 MOL      0.312257
    129 O19         7.8970   -0.2640    0.7600 o         1 MOL     -0.456350
    130 C41         8.5510   -2.8470   -1.2480 c3        1 MOL      0.314493
    131 C42         9.0830   -4.2360   -0.9030 c3        1 MOL     -0.299357
    132 O20         8.0830   -2.8350   -2.5720 oh        1 MOL     -0.594689
    133 H60         5.9980   -3.3940   -1.5810 hn        1 MOL      0.308822
    134 H61         7.6760   -2.6810    0.7240 h1        1 MOL      0.128639
    135 H62         9.4290   -2.2210   -1.0850 h1        1 MOL      0.035979
    136 H63         8.9330   -2.7380   -3.0120 ho        1 MOL      0.390003
    137 H64         9.9780   -4.3610   -1.5060 hc        1 MOL      0.082404
    138 H65         9.4190   -4.2780    0.1400 hc        1 MOL      0.082404
    139 H66         8.3350   -4.9960   -1.1020 hc        1 MOL      0.082404
    140 N12         6.6810   -0.2360   -1.1690 n         1 MOL     -0.250458
    141 C43         6.6460    1.2520   -1.3030 c3        1 MOL     -0.006510
    142 C44         5.8220    1.8840   -0.1640 c         1 MOL      0.258736
    143 O21         6.2310    2.9300    0.3680 o         1 MOL     -0.495049
    144 C45         6.2020    1.6370   -2.7120 c3        1 MOL      0.023188
    145 C46         6.2320    3.1340   -3.0650 c3        1 MOL     -0.226947
    146 C47         5.6350    3.3550   -4.4980 c3        1 MOL      0.155374
    147 C48         5.6050    4.8340   -4.8540 c3        1 MOL      0.070263
    148 N13         4.8420    5.1310   -6.1750 n4        1 MOL     -0.394312
    149 H67         6.4620   -0.8280   -1.9560 hn        1 MOL      0.175722
    150 H68         7.6320    1.7090   -1.3680 h1        1 MOL      0.099352
    151 H69         5.1830    1.2580   -2.8750 hc        1 MOL      0.025201
    152 H70         6.9120    1.1850   -3.4000 hc        1 MOL      0.025201
    153 H71         7.2820    3.4530   -3.0830 hc        1 MOL      0.086895
    154 H72         5.5870    3.6850   -2.3740 hc        1 MOL      0.086895
    155 H73         4.6400    2.9170   -4.5110 hc        1 MOL     -0.013734
    156 H74         6.1380    2.7870   -5.2840 hc        1 MOL     -0.013734
    157 H75         6.6540    5.1090   -4.9540 hx        1 MOL      0.064568
    158 H76         5.2060    5.4000   -4.0170 hx        1 MOL      0.064568
    159 H77         5.1310    6.0380   -6.5050 hn        1 MOL      0.336052
    160 H78         5.1490    4.5270   -6.9220 hn        1 MOL      0.336052
    161 H79         3.8480    5.0700   -6.0630 hn        1 MOL      0.336052
    162 N14         4.7440    1.1930    0.1970 n         1 MOL      0.080154
    163 C49         3.9020    1.8020    1.2660 c3        1 MOL     -0.220200
    164 C50         4.5760    1.6090    2.6480 c         1 MOL      0.444737
    165 O22         4.3480    2.4460    3.5260 o         1 MOL     -0.555611
    166 C51         2.5700    1.0790    1.3280 c3        1 MOL      0.308787
    167 C52         1.7270    1.6880    0.2090 c3        1 MOL     -0.086434
    168 C53         0.5580    0.8450   -0.2600 c         1 MOL      0.589433
    169 O23        -0.5050    1.4510   -0.5660 o         1 MOL     -0.696166
    170 O24         0.6720   -0.3800   -0.2780 o         1 MOL     -0.696166
    171 H80         4.3550    0.4070   -0.3100 hn        1 MOL      0.085699
    172 H81         3.7640    2.8670    1.1090 h1        1 MOL      0.112034
    173 H82         2.1460    1.2200    2.3180 hc        1 MOL     -0.050888
    174 H83         2.6600    0.0090    1.1910 hc        1 MOL     -0.050888
    175 H84         2.2760    1.8910   -0.7110 hc        1 MOL     -0.005804
    176 H85         1.4640    2.6650    0.5920 hc        1 MOL     -0.005804
    177 N15         5.2980    0.5050    2.9530 n         1 MOL     -0.030171
    178 C54         6.0140    0.2160    4.1740 c3        1 MOL     -0.275815
    179 H86         5.3430    0.3390    5.0250 h1        1 MOL      0.105211
    180 H87         6.3800   -0.8100    4.1460 h1        1 MOL      0.105211
    181 H88         6.8560    0.9010    4.2740 h1        1 MOL      0.105211
    182 H89         5.1740   -0.1830    2.2210 hn        1 MOL      0.081804
    183 Ca1        -1.6130   -0.6810   -1.6530 Ca        1 MOL      1.792108
    184 O25        -0.0620    0.2840   -3.4680 oh        1 MOL     -0.903104
    185 H90        -0.6270    0.9860   -3.7910 ho        1 MOL      0.420826
    186 H91         0.8210    0.6310   -3.5580 ho        1 MOL      0.420826
    187 O26        -0.9040   -3.0430   -2.7800 oh        1 MOL     -0.903104
    188 H92        -1.5770   -3.6430   -2.4580 ho        1 MOL      0.420826
    189 H93        -0.4090   -3.5610   -3.4040 ho        1 MOL      0.420826
@<TRIPOS>BOND
     1    1    2 1   
     2    1    4 1   
     3    1    5 1   
     4    1    6 1   
     5    2    3 2   
     6    2    7 1   
     7    7    8 1   
     8    7   15 1   
     9    8    9 1   
    10    8   11 1   
    11    8   16 1   
    12    9   10 2   
    13    9   19 1   
    14   11   12 1   
    15   11   17 1   
    16   11   18 1   
    17   12   13 1   
    18   12   14 1   
    19   19   20 1   
    20   19   28 1   
    21   20   21 1   
    22   20   23 1   
    23   20   29 1   
    24   21   22 2   
    25   21   41 1   
    26   23   24 1   
    27   23   30 1   
    28   23   31 1   
    29   24   25 1   
    30   24   32 1   
    31   24   33 1   
    32   25   26 1   
    33   25   34 1   
    34   25   35 1   
    35   26   27 1   
    36   26   36 1   
    37   26   37 1   
    38   27   38 1   
    39   27   39 1   
    40   27   40 1   
    41   41   42 1   
    42   41   49 1   
    43   42   43 1   
    44   42   45 1   
    45   42   50 1   
    46   43   44 2   
    47   43   53 1   
    48   45   46 1   
    49   45   51 1   
    50   45   52 1   
    51   46   47 1   
    52   46   48 1   
    53   53   54 1   
    54   53   57 1   
    55   54   55 1   
    56   54   58 1   
    57   54   59 1   
    58   55   56 2   
    59   55   60 1   
    60   60   61 1   
    61   60   68 1   
    62   61   62 1   
    63   61   64 1   
    64   61   69 1   
    65   62   63 2   
    66   62   72 1   
    67   64   65 1   
    68   64   70 1   
    69   64   71 1   
    70   65   66 1   
    71   65   67 1   
    72   72   73 1   
    73   72   76 1   
    74   73   74 1   
    75   73   77 1   
    76   73   78 1   
    77   74   75 2   
    78   74   79 1   
    79   79   80 1   
    80   79   86 1   
    81   80   81 1   
    82   80   83 1   
    83   80   87 1   
    84   81   82 2   
    85   81   93 1   
    86   83   84 1   
    87   83   85 1   
    88   83   88 1   
    89   84   90 1   
    90   84   91 1   
    91   84   92 1   
    92   85   89 1   
    93   93   94 1   
    94   93  101 1   
    95   94   95 1   
    96   94   97 1   
    97   94  102 1   
    98   95   96 2   
    99   95  112 1   
   100   97   98 1   
   101   97   99 1   
   102   97  103 1   
   103   98  100 1   
   104   98  104 1   
   105   98  105 1   
   106   99  106 1   
   107   99  107 1   
   108   99  108 1   
   109  100  109 1   
   110  100  110 1   
   111  100  111 1   
   112  112  113 1   
   113  112  119 1   
   114  113  114 1   
   115  113  116 1   
   116  113  120 1   
   117  114  115 2   
   118  114  126 1   
   119  116  117 1   
   120  116  118 1   
   121  116  121 1   
   122  117  123 1   
   123  117  124 1   
   124  117  125 1   
   125  118  122 1   
   126  126  127 1   
   127  126  133 1   
   128  127  128 1   
   129  127  130 1   
   130  127  134 1   
   131  128  129 2   
   132  128  140 1   
   133  130  131 1   
   134  130  132 1   
   135  130  135 1   
   136  131  137 1   
   137  131  138 1   
   138  131  139 1   
   139  132  136 1   
   140  140  141 1   
   141  140  149 1   
   142  141  142 1   
   143  141  144 1   
   144  141  150 1   
   145  142  143 2   
   146  142  162 1   
   147  144  145 1   
   148  144  151 1   
   149  144  152 1   
   150  145  146 1   
   151  145  153 1   
   152  145  154 1   
   153  146  147 1   
   154  146  155 1   
   155  146  156 1   
   156  147  148 1   
   157  147  157 1   
   158  147  158 1   
   159  148  159 1   
   160  148  160 1   
   161  148  161 1   
   162  162  163 1   
   163  162  171 1   
   164  163  164 1   
   165  163  166 1   
   166  163  172 1   
   167  164  165 2   
   168  164  177 1   
   169  166  167 1   
   170  166  173 1   
   171  166  174 1   
   172  167  168 1   
   173  167  175 1   
   174  167  176 1   
   175  168  169 1   
   176  168  170 1   
   177  177  178 1   
   178  177  182 1   
   179  178  179 1   
   180  178  180 1   
   181  178  181 1   
   182  184  185 1   
   183  184  186 1   
   184  187  188 1   
   185  187  189 1   
@<TRIPOS>SUBSTRUCTURE
     1 MOL         1 TEMP              0 ****  ****    0 ROOT
