@<TRIPOS>MOLECULE
MOL
  175   173     1     0     0
SMALL
resp


@<TRIPOS>ATOM
      1 C1          0.3470    4.3800    5.5800 c3        1 MOL     -0.307807
      2 C2         -0.1960    4.3520    4.1700 c         1 MOL      0.698515
      3 O1          0.4530    4.8770    3.2240 o         1 MOL     -0.550232
      4 H1          1.3330    4.8470    5.5800 hc        1 MOL      0.075157
      5 H2         -0.3260    4.9540    6.2180 hc        1 MOL      0.075157
      6 H3          0.4280    3.3620    5.9590 hc        1 MOL      0.075157
      7 N1         -1.4340    3.8640    3.9750 n         1 MOL     -0.599238
      8 C3         -2.0200    3.5090    2.6650 c3        1 MOL      0.102772
      9 C4         -2.1560    4.7810    1.7550 c         1 MOL      0.585228
     10 O2         -2.4850    5.8560    2.1860 o         1 MOL     -0.557876
     11 C5         -3.4600    2.9500    2.9850 c3        1 MOL     -0.417757
     12 C6         -4.1450    2.3100    1.8010 c         1 MOL      0.829218
     13 O3         -5.3510    2.0720    1.8920 o         1 MOL     -0.672496
     14 O4         -3.4080    2.0370    0.8110 o         1 MOL     -0.672496
     15 H4         -1.9460    3.3840    4.6950 hn        1 MOL      0.315881
     16 H5         -1.4460    2.7490    2.1360 h1        1 MOL      0.075285
     17 H6         -3.9710    3.8270    3.3910 hc        1 MOL      0.090283
     18 H7         -3.3350    2.2680    3.8180 hc        1 MOL      0.090283
     19 N2         -2.0050    4.5610    0.4510 n         1 MOL     -0.436491
     20 C7         -2.1950    5.6050   -0.5560 c3        1 MOL      0.414446
     21 C8         -3.3000    5.2420   -1.5650 c         1 MOL      0.340760
     22 O5         -3.6030    6.0860   -2.3930 o         1 MOL     -0.538565
     23 C9         -0.7900    5.9880   -1.1410 c3        1 MOL     -0.204585
     24 H8         -1.5270    3.7310    0.1280 hn        1 MOL      0.250879
     25 H9         -2.4700    6.5250   -0.0520 h1        1 MOL     -0.025859
     26 H10        -0.2000    6.3100   -0.2850 hc        1 MOL      0.042542
     27 H11        -0.2220    5.1300   -1.5100 hc        1 MOL      0.042542
     28 H12        -0.9780    6.7110   -1.9300 hc        1 MOL      0.042542
     29 N3         -3.8300    3.9970   -1.6040 n         1 MOL     -0.312363
     30 C10        -4.6360    3.4560   -2.6970 c3        1 MOL      0.148966
     31 C11        -5.7880    2.4980   -2.3290 c         1 MOL      0.380726
     32 O6         -6.7260    2.4380   -3.1230 o         1 MOL     -0.549624
     33 C12        -3.7520    2.8610   -3.7930 c3        1 MOL     -0.289882
     34 C13        -3.0820    1.5640   -3.3320 c         1 MOL      0.756427
     35 O7         -2.1010    1.2460   -4.0140 o         1 MOL     -0.686011
     36 O8         -3.3880    0.8920   -2.2890 o         1 MOL     -0.686011
     37 H13        -3.6420    3.3530   -0.8550 hn        1 MOL      0.134884
     38 H14        -5.1900    4.2820   -3.1490 h1        1 MOL      0.050119
     39 H15        -3.0080    3.6260   -4.0240 hc        1 MOL      0.077632
     40 H16        -4.3480    2.5530   -4.6560 hc        1 MOL      0.077632
     41 N4         -5.9230    1.9300   -1.1300 n         1 MOL     -0.035249
     42 C14        -7.1590    1.3560   -0.6660 c3        1 MOL     -0.391272
     43 C15        -7.3600   -0.1270   -1.1580 c         1 MOL      0.485007
     44 O9         -8.5200   -0.5690   -1.2450 o         1 MOL     -0.603343
     45 H17        -5.1910    2.0120   -0.4490 hn        1 MOL      0.071538
     46 H18        -7.9970    1.9090   -1.0890 h1        1 MOL      0.167033
     47 H19        -7.1170    1.4400    0.4200 h1        1 MOL      0.167033
     48 N5         -6.3380   -0.7480   -1.7360 n         1 MOL     -0.134127
     49 C16        -6.2600   -2.1420   -2.3430 c3        1 MOL     -0.011123
     50 C17        -6.3550   -3.2570   -1.2880 c         1 MOL      0.435310
     51 O10        -6.2630   -4.4400   -1.6940 o         1 MOL     -0.512414
     52 C18        -5.0270   -2.1780   -3.2510 c3        1 MOL     -0.240110
     53 C19        -3.6410   -2.0830   -2.5400 c         1 MOL      0.705353
     54 N6         -2.5390   -2.4310   -3.1500 n         1 MOL     -0.667618
     55 O11        -3.6280   -1.7940   -1.3600 o         1 MOL     -0.635330
     56 H20        -5.5240   -0.1500   -1.8470 hn        1 MOL      0.148249
     57 H21        -7.2000   -2.2790   -2.8820 h1        1 MOL      0.101328
     58 H22        -5.0170   -1.3730   -3.9920 hc        1 MOL      0.072717
     59 H23        -5.1080   -3.1790   -3.6590 hc        1 MOL      0.072717
     60 H24        -2.5130   -2.5160   -4.1540 hn        1 MOL      0.327421
     61 H25        -1.6500   -2.1280   -2.8040 hn        1 MOL      0.327421
     62 N7         -6.3750   -2.9930    0.0560 n         1 MOL     -0.255723
     63 C20        -6.3770   -4.0040    1.1230 c3        1 MOL     -0.304483
     64 C21        -5.0590   -4.5610    1.5350 c         1 MOL      0.636511
     65 O12        -4.9510   -5.5170    2.2700 o         1 MOL     -0.589064
     66 H26        -6.3300   -2.0170    0.3120 hn        1 MOL      0.249707
     67 H27        -7.0610   -4.8210    0.8910 h1        1 MOL      0.132022
     68 H28        -6.7160   -3.4140    1.9740 h1        1 MOL      0.132022
     69 N8         -3.9510   -4.0020    1.0440 n         1 MOL     -0.421798
     70 C22        -2.6360   -4.5040    1.4440 c3        1 MOL     -0.224661
     71 C23        -1.5900   -3.3200    1.4780 c         1 MOL      0.683809
     72 O13        -1.5780   -2.2960    0.7980 o         1 MOL     -0.459429
     73 C24        -2.1600   -5.4300    0.3430 c3        1 MOL      0.553295
     74 C25        -2.8350   -6.7630    0.2090 c3        1 MOL     -0.477363
     75 O14        -2.2770   -4.8040   -0.9370 oh        1 MOL     -0.599518
     76 H29        -4.0070   -3.3020    0.3160 hn        1 MOL      0.383878
     77 H30        -2.6760   -5.1110    2.3500 h1        1 MOL      0.129877
     78 H31        -1.1090   -5.6010    0.5390 h1        1 MOL     -0.046788
     79 H32        -2.2270   -3.8460   -0.8570 ho        1 MOL      0.296564
     80 H33        -2.6710   -7.3170    1.1260 hc        1 MOL      0.119219
     81 H34        -3.9050   -6.6430    0.0590 hc        1 MOL      0.119219
     82 H35        -2.3480   -7.3260   -0.5870 hc        1 MOL      0.119219
     83 N9         -0.5980   -3.5970    2.3390 n         1 MOL     -0.723496
     84 C26         0.6730   -2.8040    2.3590 c3        1 MOL     -0.062634
     85 C27         1.4440   -3.0450    1.0130 c         1 MOL      0.495786
     86 O15         1.7270   -4.2090    0.6770 o         1 MOL     -0.564507
     87 C28         1.5010   -3.0200    3.5560 c3        1 MOL      0.273600
     88 C29         0.7290   -3.0640    4.9730 c3        1 MOL      0.087492
     89 C30         2.6400   -1.9860    3.5670 c3        1 MOL     -0.308245
     90 C31         1.4860   -3.6220    6.2110 c3        1 MOL     -0.240965
     91 H36        -0.4820   -4.5130    2.7420 hn        1 MOL      0.352162
     92 H37         0.4750   -1.7390    2.2830 h1        1 MOL      0.097745
     93 H38         1.9970   -3.9750    3.4570 hc        1 MOL     -0.018605
     94 H39        -0.0600   -3.7970    4.8270 hc        1 MOL     -0.014812
     95 H40         0.2680   -2.1160    5.2200 hc        1 MOL     -0.014812
     96 H41         3.3680   -2.0700    2.7580 hc        1 MOL      0.053260
     97 H42         2.2520   -0.9690    3.4880 hc        1 MOL      0.053260
     98 H43         3.1630   -2.0560    4.5180 hc        1 MOL      0.053260
     99 H44         0.9430   -3.2600    7.0870 hc        1 MOL      0.054028
    100 H45         1.6320   -4.6960    6.1300 hc        1 MOL      0.054028
    101 H46         2.5010   -3.2360    6.3180 hc        1 MOL      0.054028
    102 N10         1.8010   -1.9500    0.3810 n         1 MOL     -0.163908
    103 C32         2.6400   -1.8620   -0.8660 c3        1 MOL      0.011238
    104 C33         4.0950   -1.5560   -0.6030 c         1 MOL      0.333067
    105 O16         4.3260   -0.7680    0.3360 o         1 MOL     -0.230519
    106 C34         1.9990   -0.9420   -1.8630 c3        1 MOL     -0.148593
    107 C35         0.6010   -1.3370   -2.4110 c         1 MOL      0.603528
    108 O17         0.4730   -1.5760   -3.6720 o         1 MOL     -0.634804
    109 O18        -0.4000   -1.2840   -1.6840 o         1 MOL     -0.634804
    110 H47         1.2580   -1.1290    0.5990 hn        1 MOL      0.132117
    111 H48         2.6300   -2.8260   -1.3700 h1        1 MOL      0.055899
    112 H49         2.7040   -0.8650   -2.6970 hc        1 MOL      0.075294
    113 H50         1.8880    0.0800   -1.4890 hc        1 MOL      0.075294
    114 N11         5.1120   -2.0090   -1.3590 n         1 MOL     -0.534813
    115 C36         6.5370   -1.6910   -1.1110 c3        1 MOL      0.302929
    116 C37         6.8080   -0.2840   -0.9750 c         1 MOL      0.411196
    117 O19         7.4820    0.0260    0.0110 o         1 MOL     -0.524361
    118 C38         7.3800   -2.3340   -2.2190 c3        1 MOL     -0.277046
    119 C39         8.8210   -1.9010   -2.2310 ca        1 MOL      0.285631
    120 C40         9.3370   -1.1260   -3.2660 ca        1 MOL     -0.344741
    121 C41         9.7140   -2.3740   -1.1820 ca        1 MOL     -0.344741
    122 C42        10.6450   -0.7100   -3.1410 ca        1 MOL      0.056566
    123 C43        11.0280   -1.9510   -1.1580 ca        1 MOL      0.056566
    124 C44        11.5400   -1.1450   -2.1580 ca        1 MOL     -0.254201
    125 H51         4.8270   -2.5660   -2.1560 hn        1 MOL      0.321815
    126 H52         6.8430   -2.1300   -0.1650 h1        1 MOL      0.049605
    127 H53         6.9450   -2.2070   -3.2140 hc        1 MOL      0.072728
    128 H54         7.3230   -3.4100   -2.0500 hc        1 MOL      0.072728
    129 H55         8.7700   -0.8020   -4.1240 ha        1 MOL      0.162900
    130 H56         9.3700   -2.9780   -0.3580 ha        1 MOL      0.162900
    131 H57        10.9870   -0.0640   -3.9380 ha        1 MOL      0.070840
    132 H58        11.7160   -2.2770   -0.3980 ha        1 MOL      0.070840
    133 H59        12.5940   -0.9220   -2.1710 ha        1 MOL      0.128696
    134 N12         6.2280    0.6740   -1.7100 n         1 MOL     -0.103503
    135 C45         6.3860    2.1080   -1.4230 c3        1 MOL     -0.026318
    136 C46         5.8020    2.6260   -0.1220 c         1 MOL      0.385257
    137 O20         6.3610    3.5730    0.3590 o         1 MOL     -0.523806
    138 C47         5.7000    2.8440   -2.6750 c3        1 MOL      0.020807
    139 C48         5.5730    1.7400   -3.7330 c3        1 MOL     -0.048535
    140 C49         5.3980    0.4910   -2.8610 c3        1 MOL     -0.055153
    141 H60         7.4430    2.3790   -1.3980 h1        1 MOL      0.063559
    142 H61         4.6810    3.1530   -2.4280 hc        1 MOL      0.032301
    143 H62         6.2200    3.7590   -2.9470 hc        1 MOL      0.032301
    144 H63         4.7330    1.9530   -4.3990 hc        1 MOL      0.023456
    145 H64         6.5120    1.6730   -4.3020 hc        1 MOL      0.023456
    146 H65         4.3330    0.4850   -2.6120 h1        1 MOL      0.046148
    147 H66         5.6610   -0.3840   -3.4580 h1        1 MOL      0.046148
    148 N13         4.6790    2.1420    0.3200 n         1 MOL     -0.136150
    149 C50         4.0700    2.3050    1.6340 c3        1 MOL     -0.153816
    150 C51         4.9800    1.7040    2.7340 c         1 MOL      0.588627
    151 O21         5.1530    2.4160    3.6790 o         1 MOL     -0.584922
    152 C52         2.6210    1.7510    1.5990 c3        1 MOL     -0.081035
    153 C53         1.6400    2.3740    0.5430 c3        1 MOL      0.051664
    154 C54         0.3800    1.5850    0.3380 c         1 MOL      0.426771
    155 O22        -0.4220    1.9860   -0.5400 o         1 MOL     -0.629042
    156 O23         0.1000    0.6220    1.0810 o         1 MOL     -0.629042
    157 H67         4.4540    1.3120   -0.2080 hn        1 MOL      0.087825
    158 H68         3.9840    3.3660    1.8380 h1        1 MOL      0.116847
    159 H69         2.3240    2.0090    2.6120 hc        1 MOL      0.012368
    160 H70         2.5960    0.6630    1.5490 hc        1 MOL      0.012368
    161 H71         2.2180    2.3780   -0.3770 hc        1 MOL      0.040173
    162 H72         1.3170    3.4130    0.6620 hc        1 MOL      0.040173
    163 N14         5.4390    0.4910    2.5720 n         1 MOL     -0.073292
    164 C55         6.3530   -0.2420    3.4690 c3        1 MOL     -0.219431
    165 H73         7.3770    0.0840    3.2890 h1        1 MOL      0.084269
    166 H74         6.0850   -0.0400    4.5060 h1        1 MOL      0.084269
    167 H75         6.2730   -1.3120    3.2750 h1        1 MOL      0.084269
    168 H76         5.1970    0.0770    1.6780 hn        1 MOL      0.032827
    169 Ca1        -2.1190    0.0040   -0.1260 Ca        1 MOL      1.627314
    170 O24        -2.0170   -0.1760    2.5850 oh        1 MOL     -0.837751
    171 H77        -1.2450    0.3950    2.5970 ho        1 MOL      0.395785
    172 H78        -2.2770   -0.2530    3.5040 ho        1 MOL      0.395785
    173 O25        -4.7200   -0.6430    1.4410 oh        1 MOL     -0.837751
    174 H79        -5.1930    0.1630    1.6590 ho        1 MOL      0.395785
    175 H80        -4.1300   -0.7810    2.1810 ho        1 MOL      0.395785
@<TRIPOS>BOND
     1    1    2 1   
     2    1    4 1   
     3    1    5 1   
     4    1    6 1   
     5    2    3 2   
     6    2    7 1   
     7    7    8 1   
     8    7   15 1   
     9    8    9 1   
    10    8   11 1   
    11    8   16 1   
    12    9   10 2   
    13    9   19 1   
    14   11   12 1   
    15   11   17 1   
    16   11   18 1   
    17   12   13 1   
    18   12   14 1   
    19   19   20 1   
    20   19   24 1   
    21   20   21 1   
    22   20   23 1   
    23   20   25 1   
    24   21   22 2   
    25   21   29 1   
    26   23   26 1   
    27   23   27 1   
    28   23   28 1   
    29   29   30 1   
    30   29   37 1   
    31   30   31 1   
    32   30   33 1   
    33   30   38 1   
    34   31   32 2   
    35   31   41 1   
    36   33   34 1   
    37   33   39 1   
    38   33   40 1   
    39   34   35 1   
    40   34   36 1   
    41   41   42 1   
    42   41   45 1   
    43   42   43 1   
    44   42   46 1   
    45   42   47 1   
    46   43   44 2   
    47   43   48 1   
    48   48   49 1   
    49   48   56 1   
    50   49   50 1   
    51   49   52 1   
    52   49   57 1   
    53   50   51 2   
    54   50   62 1   
    55   52   53 1   
    56   52   58 1   
    57   52   59 1   
    58   53   54 1   
    59   53   55 2   
    60   54   60 1   
    61   54   61 1   
    62   62   63 1   
    63   62   66 1   
    64   63   64 1   
    65   63   67 1   
    66   63   68 1   
    67   64   65 2   
    68   64   69 1   
    69   69   70 1   
    70   69   76 1   
    71   70   71 1   
    72   70   73 1   
    73   70   77 1   
    74   71   72 2   
    75   71   83 1   
    76   73   74 1   
    77   73   75 1   
    78   73   78 1   
    79   74   80 1   
    80   74   81 1   
    81   74   82 1   
    82   75   79 1   
    83   83   84 1   
    84   83   91 1   
    85   84   85 1   
    86   84   87 1   
    87   84   92 1   
    88   85   86 2   
    89   85  102 1   
    90   87   88 1   
    91   87   89 1   
    92   87   93 1   
    93   88   90 1   
    94   88   94 1   
    95   88   95 1   
    96   89   96 1   
    97   89   97 1   
    98   89   98 1   
    99   90   99 1   
   100   90  100 1   
   101   90  101 1   
   102  102  103 1   
   103  102  110 1   
   104  103  104 1   
   105  103  106 1   
   106  103  111 1   
   107  104  105 2   
   108  104  114 1   
   109  106  107 1   
   110  106  112 1   
   111  106  113 1   
   112  107  108 1   
   113  107  109 1   
   114  114  115 1   
   115  114  125 1   
   116  115  116 1   
   117  115  118 1   
   118  115  126 1   
   119  116  117 2   
   120  116  134 1   
   121  118  119 1   
   122  118  127 1   
   123  118  128 1   
   124  119  120 ar  
   125  119  121 ar  
   126  120  122 ar  
   127  120  129 1   
   128  121  123 ar  
   129  121  130 1   
   130  122  124 ar  
   131  122  131 1   
   132  123  124 ar  
   133  123  132 1   
   134  124  133 1   
   135  134  135 1   
   136  134  140 1   
   137  135  136 1   
   138  135  138 1   
   139  135  141 1   
   140  136  137 2   
   141  136  148 1   
   142  138  139 1   
   143  138  142 1   
   144  138  143 1   
   145  139  140 1   
   146  139  144 1   
   147  139  145 1   
   148  140  146 1   
   149  140  147 1   
   150  148  149 1   
   151  148  157 1   
   152  149  150 1   
   153  149  152 1   
   154  149  158 1   
   155  150  151 2   
   156  150  163 1   
   157  152  153 1   
   158  152  159 1   
   159  152  160 1   
   160  153  154 1   
   161  153  161 1   
   162  153  162 1   
   163  154  155 1   
   164  154  156 1   
   165  163  164 1   
   166  163  168 1   
   167  164  165 1   
   168  164  166 1   
   169  164  167 1   
   170  170  171 1   
   171  170  172 1   
   172  173  174 1   
   173  173  175 1   
@<TRIPOS>SUBSTRUCTURE
     1 MOL         1 TEMP              0 ****  ****    0 ROOT
