@<TRIPOS>MOLECULE
MOL
  186   183     1     0     0
SMALL
resp


@<TRIPOS>ATOM
      1 C1          1.1490   -1.5360    6.7170 c3        1 MOL     -0.345583
      2 C2          1.3260   -1.7510    5.1860 c         1 MOL      0.735182
      3 O1          0.3400   -1.9990    4.4330 o         1 MOL     -0.614436
      4 H1          2.1260   -1.5480    7.2000 hc        1 MOL      0.085421
      5 H2          0.6670   -0.5750    6.8950 hc        1 MOL      0.085421
      6 H3          0.5310   -2.3350    7.1270 hc        1 MOL      0.085421
      7 N1          2.5290   -1.5640    4.5860 n         1 MOL     -0.658220
      8 C3          2.8870   -1.6580    3.1550 c3        1 MOL      0.125740
      9 C4          3.1010   -3.1670    2.7940 c         1 MOL      0.570287
     10 O2          3.8550   -3.8460    3.4500 o         1 MOL     -0.585010
     11 C5          4.0030   -0.7580    2.8680 c3        1 MOL     -0.143054
     12 C6          4.4510   -0.8240    1.3530 c         1 MOL      0.771342
     13 O3          5.5850   -0.3600    1.1490 o         1 MOL     -0.632599
     14 O4          3.7340   -1.3040    0.4270 o         1 MOL     -0.632599
     15 H4          3.3000   -1.3370    5.2030 hn        1 MOL      0.324783
     16 H5          1.9630   -1.3390    2.6610 h1        1 MOL      0.029939
     17 H6          4.8890   -1.0460    3.4470 hc        1 MOL      0.021499
     18 H7          3.7740    0.2840    3.0740 hc        1 MOL      0.021499
     19 N2          2.5140   -3.6440    1.6650 n         1 MOL     -0.167362
     20 C7          2.3020   -5.0530    1.3960 c3        1 MOL     -0.115099
     21 C8          3.0250   -5.4190    0.0610 c         1 MOL      0.520811
     22 O5          3.6750   -6.4600    0.0760 o         1 MOL     -0.566345
     23 C9          0.7590   -5.4210    1.4040 c3        1 MOL      0.330069
     24 C10        -0.0680   -4.7810    2.5140 c3        1 MOL      0.115346
     25 C11         0.7920   -6.9370    1.5890 c3        1 MOL     -0.427697
     26 C12        -1.6290   -4.9030    2.3070 c3        1 MOL     -0.057479
     27 H8          2.1800   -2.9290    1.0260 hn        1 MOL      0.149562
     28 H9          2.7300   -5.5780    2.2550 h1        1 MOL      0.072901
     29 H10         0.3190   -5.1790    0.4440 hc        1 MOL     -0.053126
     30 H11         0.2590   -3.7490    2.5830 hc        1 MOL     -0.051983
     31 H12         0.2640   -5.3150    3.4060 hc        1 MOL     -0.051983
     32 H13         1.4120   -7.2190    2.4480 hc        1 MOL      0.080212
     33 H14        -0.2150   -7.3200    1.7290 hc        1 MOL      0.080212
     34 H15         1.3480   -7.3910    0.7680 hc        1 MOL      0.080212
     35 H16        -2.2490   -4.3260    2.9890 hc        1 MOL      0.002428
     36 H17        -1.8960   -4.6550    1.2830 hc        1 MOL      0.002428
     37 H18        -1.9280   -5.9340    2.5170 hc        1 MOL      0.002428
     38 N3          2.9630   -4.5740   -1.0140 n         1 MOL     -0.366134
     39 C13         3.7570   -4.7270   -2.2460 c3        1 MOL      0.061711
     40 C14         5.0680   -3.9690   -2.2770 c         1 MOL      0.391267
     41 O6          5.9190   -4.3910   -3.0610 o         1 MOL     -0.545271
     42 C15         2.9240   -4.3670   -3.4620 c3        1 MOL     -0.327975
     43 C16         2.1650   -3.0440   -3.3430 c         1 MOL      0.816558
     44 O7          1.1180   -2.8310   -4.0170 o         1 MOL     -0.722391
     45 O8          2.5800   -2.1260   -2.5650 o         1 MOL     -0.722391
     46 H19         2.4400   -3.7150   -0.9550 hn        1 MOL      0.251729
     47 H20         3.9530   -5.7820   -2.4510 h1        1 MOL      0.097530
     48 H21         2.2540   -5.1980   -3.6800 hc        1 MOL      0.086001
     49 H22         3.5980   -4.3600   -4.3180 hc        1 MOL      0.086001
     50 N4          5.3860   -3.0150   -1.3510 n         1 MOL      0.071682
     51 C17         6.7790   -2.6860   -1.0280 c3        1 MOL     -0.233056
     52 C18         7.3820   -1.4900   -1.7100 c         1 MOL      0.671104
     53 O9          8.2610   -1.6490   -2.5670 o         1 MOL     -0.579354
     54 H23         4.6500   -2.7690   -0.7160 hn        1 MOL     -0.008217
     55 H24         7.4830   -3.4430   -1.3680 h1        1 MOL      0.071751
     56 H25         6.8140   -2.5840    0.0530 h1        1 MOL      0.071751
     57 N5          6.9010   -0.2990   -1.3160 n         1 MOL     -0.462130
     58 C19         7.3150    0.9780   -1.8240 c3        1 MOL      0.079453
     59 C20         7.4910    2.0610   -0.7420 c         1 MOL      0.407797
     60 O10         7.9590    3.1820   -1.0820 o         1 MOL     -0.576956
     61 C21         6.2470    1.4130   -2.8470 c3        1 MOL     -0.085321
     62 C22         4.8280    1.1150   -2.3820 c         1 MOL      0.653747
     63 O11         4.3880    1.7880   -1.4060 o         1 MOL     -0.696391
     64 O12         4.0670    0.3110   -3.0260 o         1 MOL     -0.696391
     65 H26         6.1530   -0.3470   -0.6310 hn        1 MOL      0.111136
     66 H27         8.3020    0.9020   -2.2990 h1        1 MOL      0.065433
     67 H28         6.3750    0.8790   -3.7880 hc        1 MOL      0.025945
     68 H29         6.4480    2.4450   -3.1030 hc        1 MOL      0.025945
     69 N6          7.1950    1.8430    0.5110 n         1 MOL     -0.195760
     70 C23         7.1790    2.8530    1.5730 c3        1 MOL     -0.245143
     71 C24         5.9530    3.7540    1.6460 c         1 MOL      0.602501
     72 O13         5.9590    4.6750    2.4870 o         1 MOL     -0.616342
     73 H30         6.8340    0.9170    0.6710 hn        1 MOL      0.229936
     74 H31         8.0660    3.4920    1.6040 h1        1 MOL      0.109590
     75 H32         7.1620    2.1950    2.4420 h1        1 MOL      0.109590
     76 N7          4.9550    3.4920    0.8320 n         1 MOL     -0.310384
     77 C25         3.6700    4.1970    0.9180 c3        1 MOL      0.015837
     78 C26         2.4830    3.2570    0.9930 c         1 MOL      0.739782
     79 O14         2.5490    2.0630    0.6650 o         1 MOL     -0.728824
     80 C27         3.5580    5.2550   -0.2780 c3        1 MOL      0.007706
     81 C28         4.4530    6.4780   -0.1360 c3        1 MOL     -0.269727
     82 C29         4.1160    7.6150   -1.0960 c         1 MOL      0.692518
     83 N8          4.3770    7.4170   -2.3600 n         1 MOL     -0.830939
     84 O15         3.4760    8.5580   -0.7290 o         1 MOL     -0.581509
     85 H33         5.1320    2.7980    0.1170 hn        1 MOL      0.246470
     86 H34         3.6170    4.6700    1.8990 h1        1 MOL      0.051320
     87 H35         2.5200    5.5850   -0.3360 hc        1 MOL      0.030844
     88 H36         3.6770    4.7350   -1.2350 hc        1 MOL      0.030844
     89 H37         5.5090    6.2010   -0.2090 hc        1 MOL      0.086742
     90 H38         4.4240    6.8610    0.8830 hc        1 MOL      0.086742
     91 H39         4.7510    6.5260   -2.6630 hn        1 MOL      0.370699
     92 H40         3.9540    8.0500   -3.0200 hn        1 MOL      0.370699
     93 N9          1.3170    3.7980    1.3320 n         1 MOL     -0.521705
     94 C30         0.0710    3.0760    1.6330 c3        1 MOL      0.207699
     95 C31        -1.1310    3.6810    0.8170 c         1 MOL      0.415800
     96 O16        -1.3890    4.8530    0.9450 o         1 MOL     -0.554345
     97 C32        -0.1610    3.0090    3.1890 c3        1 MOL      0.024983
     98 C33        -1.5080    2.3660    3.5100 c3        1 MOL     -0.218444
     99 C34         0.8720    2.0790    3.7510 c3        1 MOL     -0.218444
    100 H41         1.3490    4.7490    1.6680 hn        1 MOL      0.261476
    101 H42         0.0360    2.0450    1.2880 h1        1 MOL      0.035184
    102 H43         0.0610    3.9450    3.6870 hc        1 MOL      0.019307
    103 H44        -2.3170    3.0010    3.1780 hc        1 MOL      0.061788
    104 H45        -1.5840    1.3780    3.0530 hc        1 MOL      0.061788
    105 H46        -1.5670    2.1530    4.5790 hc        1 MOL      0.061788
    106 H47         0.8540    1.0990    3.2760 hc        1 MOL      0.061788
    107 H48         1.8660    2.5050    3.6370 hc        1 MOL      0.061788
    108 H49         0.7600    1.8460    4.8070 hc        1 MOL      0.061788
    109 N10        -1.8750    2.8320    0.0360 n         1 MOL     -0.284318
    110 C35        -3.0520    3.1200   -0.8090 c3        1 MOL      0.193579
    111 C36        -4.2720    2.4230   -0.2660 c         1 MOL      0.309502
    112 O17        -4.2150    1.7880    0.8180 o         1 MOL     -0.335800
    113 C37        -2.6590    2.6060   -2.2240 c3        1 MOL     -0.298562
    114 C38        -3.1110    1.1950   -2.4970 c         1 MOL      0.577646
    115 N11        -2.3580    0.2040   -2.1830 n         1 MOL     -0.589121
    116 O18        -4.2340    1.0770   -2.9210 o         1 MOL     -0.602562
    117 H50        -1.6090    1.8580    0.0340 hn        1 MOL      0.182908
    118 H51        -3.2900    4.1700   -0.9550 h1        1 MOL      0.055019
    119 H52        -1.5860    2.6240   -2.4040 hc        1 MOL      0.089775
    120 H53        -3.0850    3.3120   -2.9420 hc        1 MOL      0.089775
    121 H54        -1.5260    0.3600   -1.6340 hn        1 MOL      0.326176
    122 H55        -2.6940   -0.6560   -2.5910 hn        1 MOL      0.326176
    123 N12        -5.4350    2.6790   -0.8350 n         1 MOL     -0.484612
    124 C39        -6.7010    2.1390   -0.3300 c3        1 MOL      0.303585
    125 C40        -6.6790    0.5870   -0.0990 c         1 MOL      0.449598
    126 O19        -7.2800    0.0580    0.8400 o         1 MOL     -0.495553
    127 C41        -7.7730    2.5780   -1.2580 c3        1 MOL     -0.154946
    128 C42        -9.1500    2.2370   -0.7520 ca        1 MOL      0.141093
    129 C43        -9.7000    2.9420    0.3000 ca        1 MOL     -0.287838
    130 C44        -9.8810    1.1220   -1.2870 ca        1 MOL     -0.287838
    131 C45       -10.7600    2.3700    1.0600 ca        1 MOL     -0.144323
    132 C46       -10.9790    0.5640   -0.6100 ca        1 MOL     -0.144323
    133 C47       -11.4410    1.1980    0.5820 ca        1 MOL      0.219723
    134 O20       -12.4080    0.6550    1.3580 oh        1 MOL     -0.512572
    135 H56        -5.4550    3.2310   -1.6850 hn        1 MOL      0.281747
    136 H57        -6.7780    2.5890    0.6510 h1        1 MOL     -0.000080
    137 H58        -7.5540    2.2190   -2.2660 hc        1 MOL      0.049027
    138 H59        -7.7440    3.6680   -1.2560 hc        1 MOL      0.049027
    139 H60        -9.3150    3.9170    0.5570 ha        1 MOL      0.161143
    140 H61        -9.5350    0.6350   -2.1870 ha        1 MOL      0.161143
    141 H62       -11.0670    2.7910    2.0080 ha        1 MOL      0.125398
    142 H63       -11.4350   -0.3380   -0.9750 ha        1 MOL      0.125398
    143 H64       -12.8320   -0.1000    0.9350 ho        1 MOL      0.391089
    144 N13        -6.0340   -0.0860   -1.0800 n         1 MOL     -0.288540
    145 C48        -5.9960   -1.6040   -1.0760 c3        1 MOL     -0.016398
    146 C49        -5.0110   -2.1880   -0.1220 c         1 MOL      0.370995
    147 O21        -4.7240   -3.3770   -0.2110 o         1 MOL     -0.540086
    148 C50        -5.7720   -2.1420   -2.4940 c3        1 MOL      0.032476
    149 C51        -6.8450   -1.7110   -3.5300 c3        1 MOL     -0.295519
    150 C52        -6.5240   -2.3110   -4.9710 c         1 MOL      0.651468
    151 O22        -6.1410   -1.5120   -5.8850 o         1 MOL     -0.709886
    152 O23        -6.5760   -3.5650   -5.1650 o         1 MOL     -0.709886
    153 H65        -5.6170    0.3760   -1.8720 hn        1 MOL      0.314153
    154 H66        -6.9020   -2.0700   -0.6810 h1        1 MOL      0.098899
    155 H67        -5.7160   -3.2330   -2.4680 hc        1 MOL      0.048466
    156 H68        -4.8110   -1.7470   -2.8460 hc        1 MOL      0.048466
    157 H69        -6.8250   -0.6210   -3.5160 hc        1 MOL      0.035643
    158 H70        -7.8660   -1.9350   -3.1910 hc        1 MOL      0.035643
    159 N14        -4.4490   -1.4020    0.7870 n         1 MOL      0.108504
    160 C53        -3.6700   -1.9050    1.8670 c3        1 MOL     -0.030481
    161 C54        -4.1900   -1.4160    3.2210 c         1 MOL      0.419058
    162 O24        -4.1770   -2.1270    4.1940 o         1 MOL     -0.521430
    163 C55        -2.2220   -1.3600    1.6870 c3        1 MOL     -0.048469
    164 C56        -1.5690   -1.7580    0.3870 c3        1 MOL      0.080944
    165 C57        -0.2320   -1.1220    0.0410 c         1 MOL      0.676728
    166 O25         0.7880   -1.7990   -0.0160 o         1 MOL     -0.734688
    167 O26        -0.1620    0.0820   -0.3800 o         1 MOL     -0.734688
    168 H71        -4.7940   -0.4620    0.9250 hn        1 MOL     -0.255888
    169 H72        -3.6440   -2.9960    1.8970 h1        1 MOL      0.083087
    170 H73        -1.5590   -1.8030    2.4280 hc        1 MOL      0.061747
    171 H74        -2.1060   -0.2780    1.7110 hc        1 MOL      0.061747
    172 H75        -2.3250   -1.6830   -0.4010 hc        1 MOL     -0.021753
    173 H76        -1.3760   -2.8310    0.4560 hc        1 MOL     -0.021753
    174 N15        -4.7160   -0.1600    3.2250 n         1 MOL     -0.140911
    175 C58        -5.3090    0.5230    4.4410 c3        1 MOL     -0.124612
    176 H77        -5.2890   -0.1630    5.2880 h1        1 MOL      0.064080
    177 H78        -4.7230    1.4120    4.6800 h1        1 MOL      0.064080
    178 H79        -6.3390    0.8110    4.2300 h1        1 MOL      0.064080
    179 H80        -4.3980    0.3840    2.4360 hn        1 MOL      0.158416
    180 Ca1         2.2930    0.0490   -1.2150 Ca        1 MOL      1.760784
    181 O27         0.5600   -0.1680   -3.3530 oh        1 MOL     -0.806071
    182 H81         0.5440   -1.0670   -3.6770 ho        1 MOL      0.385256
    183 H82        -0.2350    0.2260   -3.7060 ho        1 MOL      0.385256
    184 O28         1.6760    2.4330   -2.4110 oh        1 MOL     -0.806071
    185 H83         1.6270    3.3810   -2.2700 ho        1 MOL      0.385256
    186 H84         1.9290    2.3300   -3.3270 ho        1 MOL      0.385256
@<TRIPOS>BOND
     1    1    2 1   
     2    1    4 1   
     3    1    5 1   
     4    1    6 1   
     5    2    3 2   
     6    2    7 1   
     7    7    8 1   
     8    7   15 1   
     9    8    9 1   
    10    8   11 1   
    11    8   16 1   
    12    9   10 2   
    13    9   19 1   
    14   11   12 1   
    15   11   17 1   
    16   11   18 1   
    17   12   13 1   
    18   12   14 1   
    19   19   20 1   
    20   19   27 1   
    21   20   21 1   
    22   20   23 1   
    23   20   28 1   
    24   21   22 2   
    25   21   38 1   
    26   23   24 1   
    27   23   25 1   
    28   23   29 1   
    29   24   26 1   
    30   24   30 1   
    31   24   31 1   
    32   25   32 1   
    33   25   33 1   
    34   25   34 1   
    35   26   35 1   
    36   26   36 1   
    37   26   37 1   
    38   38   39 1   
    39   38   46 1   
    40   39   40 1   
    41   39   42 1   
    42   39   47 1   
    43   40   41 2   
    44   40   50 1   
    45   42   43 1   
    46   42   48 1   
    47   42   49 1   
    48   43   44 1   
    49   43   45 1   
    50   50   51 1   
    51   50   54 1   
    52   51   52 1   
    53   51   55 1   
    54   51   56 1   
    55   52   53 2   
    56   52   57 1   
    57   57   58 1   
    58   57   65 1   
    59   58   59 1   
    60   58   61 1   
    61   58   66 1   
    62   59   60 2   
    63   59   69 1   
    64   61   62 1   
    65   61   67 1   
    66   61   68 1   
    67   62   63 1   
    68   62   64 1   
    69   69   70 1   
    70   69   73 1   
    71   70   71 1   
    72   70   74 1   
    73   70   75 1   
    74   71   72 2   
    75   71   76 1   
    76   76   77 1   
    77   76   85 1   
    78   77   78 1   
    79   77   80 1   
    80   77   86 1   
    81   78   79 2   
    82   78   93 1   
    83   80   81 1   
    84   80   87 1   
    85   80   88 1   
    86   81   82 1   
    87   81   89 1   
    88   81   90 1   
    89   82   83 1   
    90   82   84 2   
    91   83   91 1   
    92   83   92 1   
    93   93   94 1   
    94   93  100 1   
    95   94   95 1   
    96   94   97 1   
    97   94  101 1   
    98   95   96 2   
    99   95  109 1   
   100   97   98 1   
   101   97   99 1   
   102   97  102 1   
   103   98  103 1   
   104   98  104 1   
   105   98  105 1   
   106   99  106 1   
   107   99  107 1   
   108   99  108 1   
   109  109  110 1   
   110  109  117 1   
   111  110  111 1   
   112  110  113 1   
   113  110  118 1   
   114  111  112 2   
   115  111  123 1   
   116  113  114 1   
   117  113  119 1   
   118  113  120 1   
   119  114  115 1   
   120  114  116 2   
   121  115  121 1   
   122  115  122 1   
   123  123  124 1   
   124  123  135 1   
   125  124  125 1   
   126  124  127 1   
   127  124  136 1   
   128  125  126 2   
   129  125  144 1   
   130  127  128 1   
   131  127  137 1   
   132  127  138 1   
   133  128  129 ar  
   134  128  130 ar  
   135  129  131 ar  
   136  129  139 1   
   137  130  132 ar  
   138  130  140 1   
   139  131  133 ar  
   140  131  141 1   
   141  132  133 ar  
   142  132  142 1   
   143  133  134 1   
   144  134  143 1   
   145  144  145 1   
   146  144  153 1   
   147  145  146 1   
   148  145  148 1   
   149  145  154 1   
   150  146  147 2   
   151  146  159 1   
   152  148  149 1   
   153  148  155 1   
   154  148  156 1   
   155  149  150 1   
   156  149  157 1   
   157  149  158 1   
   158  150  151 1   
   159  150  152 1   
   160  159  160 1   
   161  159  168 1   
   162  160  161 1   
   163  160  163 1   
   164  160  169 1   
   165  161  162 2   
   166  161  174 1   
   167  163  164 1   
   168  163  170 1   
   169  163  171 1   
   170  164  165 1   
   171  164  172 1   
   172  164  173 1   
   173  165  166 1   
   174  165  167 1   
   175  174  175 1   
   176  174  179 1   
   177  175  176 1   
   178  175  177 1   
   179  175  178 1   
   180  181  182 1   
   181  181  183 1   
   182  184  185 1   
   183  184  186 1   
@<TRIPOS>SUBSTRUCTURE
     1 MOL         1 TEMP              0 ****  ****    0 ROOT
