@<TRIPOS>MOLECULE
MOL
  175   173     1     0     0
SMALL
resp


@<TRIPOS>ATOM
      1 C1         -0.4620   -3.8630    5.5680 c3        1 MOL     -0.415998
      2 C2          0.1290   -3.7660    4.1130 c         1 MOL      0.740949
      3 O1         -0.5850   -3.6160    3.1560 o         1 MOL     -0.537275
      4 H1          0.3010   -3.5690    6.2900 hc        1 MOL      0.097817
      5 H2         -1.3200   -3.1970    5.6570 hc        1 MOL      0.097817
      6 H3         -0.7750   -4.8880    5.7670 hc        1 MOL      0.097817
      7 N1          1.4370   -3.8800    3.9980 n         1 MOL     -0.683045
      8 C3          2.1790   -3.5360    2.6740 c3        1 MOL      0.242209
      9 C4          2.3030   -4.7650    1.7530 c         1 MOL      0.566574
     10 O2          2.4900   -5.8990    2.1900 o         1 MOL     -0.595760
     11 C5          3.5910   -3.0000    2.9380 c3        1 MOL     -0.374667
     12 C6          4.3700   -2.4500    1.7590 c         1 MOL      0.671417
     13 O3          5.6190   -2.3670    1.8260 o         1 MOL     -0.630382
     14 O4          3.7090   -1.9140    0.8400 o         1 MOL     -0.630382
     15 H4          1.9750   -4.2780    4.7450 hn        1 MOL      0.346849
     16 H5          1.6130   -2.7790    2.1240 h1        1 MOL      0.031385
     17 H6          4.1520   -3.8120    3.3880 hc        1 MOL      0.073763
     18 H7          3.4000   -2.2630    3.7120 hc        1 MOL      0.073763
     19 N2          2.2940   -4.5090    0.4360 n         1 MOL     -0.409912
     20 C7          2.5150   -5.4910   -0.6520 c3        1 MOL      0.292051
     21 C8          3.7480   -5.1810   -1.5530 c         1 MOL      0.459459
     22 O5          4.2640   -6.0510   -2.2360 o         1 MOL     -0.559027
     23 C9          1.3150   -5.4760   -1.5770 c3        1 MOL     -0.241264
     24 H8          1.9900   -3.5700    0.2220 hn        1 MOL      0.168978
     25 H9          2.6580   -6.5080   -0.3020 h1        1 MOL      0.010067
     26 H10         1.4690   -6.2980   -2.2790 hc        1 MOL      0.059358
     27 H11         0.4120   -5.6160   -0.9790 hc        1 MOL      0.059358
     28 H12         1.2780   -4.5600   -2.1710 hc        1 MOL      0.059358
     29 N3          4.3160   -3.9410   -1.5630 n         1 MOL     -0.499626
     30 C10         5.0950   -3.4070   -2.6900 c3        1 MOL      0.388133
     31 C11         6.4330   -2.7390   -2.3530 c         1 MOL      0.342796
     32 O6          7.3640   -2.6960   -3.1620 o         1 MOL     -0.556556
     33 C12         4.1520   -2.4380   -3.5780 c3        1 MOL     -0.431804
     34 C13         3.3390   -1.5110   -2.6720 c         1 MOL      0.777738
     35 O7          3.9220   -0.7170   -1.9320 o         1 MOL     -0.700143
     36 O8          2.1080   -1.5720   -2.5960 o         1 MOL     -0.700143
     37 H13         3.8810   -3.2820   -0.9400 hn        1 MOL      0.322770
     38 H14         5.4520   -4.1680   -3.3820 h1        1 MOL      0.022692
     39 H15         3.4660   -3.1730   -4.0070 hc        1 MOL      0.100358
     40 H16         4.6830   -1.8180   -4.3070 hc        1 MOL      0.100358
     41 N4          6.6070   -2.2160   -1.1150 n         1 MOL     -0.168291
     42 C14         7.6810   -1.2970   -0.6000 c3        1 MOL     -0.028813
     43 C15         7.4440    0.2410   -0.8300 c         1 MOL      0.359497
     44 O9          8.5010    0.9430   -0.8470 o         1 MOL     -0.574546
     45 H17         5.7400   -2.1720   -0.5980 hn        1 MOL     -0.030948
     46 H18         8.5890   -1.5930   -1.1390 h1        1 MOL      0.083603
     47 H19         7.9290   -1.5360    0.4250 h1        1 MOL      0.083603
     48 N5          6.2290    0.7270   -1.0720 n         1 MOL     -0.122687
     49 C16         6.2190    2.0370   -1.7040 c3        1 MOL     -0.003690
     50 C17         6.1940    3.2740   -0.8100 c         1 MOL      0.419356
     51 O10         6.5480    4.3710   -1.2760 o         1 MOL     -0.530553
     52 C18         5.2200    1.9440   -2.8580 c3        1 MOL     -0.137278
     53 C19         3.7960    2.2050   -2.3500 c         1 MOL      0.412530
     54 N6          2.9560    2.4610   -3.3190 n         1 MOL     -0.555637
     55 O11         3.4710    2.2740   -1.1630 o         1 MOL     -0.439875
     56 H20         5.4300    0.1200   -1.0820 hn        1 MOL      0.267955
     57 H21         7.1610    2.2030   -2.2230 h1        1 MOL      0.100070
     58 H22         5.3560    0.9590   -3.3040 hc        1 MOL      0.058228
     59 H23         5.4370    2.6390   -3.6630 hc        1 MOL      0.058228
     60 H24         3.3590    2.3530   -4.2380 hn        1 MOL      0.308935
     61 H25         1.9680    2.3310   -3.1370 hn        1 MOL      0.308935
     62 N7          5.9670    3.0160    0.4910 n         1 MOL     -0.225443
     63 C20         5.9230    4.1080    1.5230 c3        1 MOL     -0.257482
     64 C21         4.6190    4.8330    1.5410 c         1 MOL      0.605428
     65 O12         4.5750    5.9200    2.0630 o         1 MOL     -0.571558
     66 H26         5.7490    2.0690    0.7830 hn        1 MOL      0.202001
     67 H27         6.7310    4.8170    1.3220 h1        1 MOL      0.121484
     68 H28         6.0730    3.6480    2.5020 h1        1 MOL      0.121484
     69 N8          3.5250    4.2530    0.9940 n         1 MOL     -0.126486
     70 C22         2.1550    4.7780    1.2220 c3        1 MOL     -0.591902
     71 C23         1.2400    3.5100    1.3880 c         1 MOL      0.783478
     72 O13         1.4160    2.4130    0.8210 o         1 MOL     -0.677863
     73 C24         1.5830    5.5910    0.0360 c3        1 MOL      0.676894
     74 C25         2.1930    7.0110    0.0970 c3        1 MOL     -0.396578
     75 O14         1.8420    4.9310   -1.1900 oh        1 MOL     -0.674987
     76 H29         3.5930    3.3070    0.6500 hn        1 MOL      0.141491
     77 H30         2.1690    5.2810    2.1890 h1        1 MOL      0.184109
     78 H31         0.5250    5.8380    0.1370 h1        1 MOL     -0.005978
     79 H32         2.6270    4.3840   -1.1090 ho        1 MOL      0.391735
     80 H33         2.2630    7.4410   -0.9120 hc        1 MOL      0.081544
     81 H34         1.5660    7.6590    0.6950 hc        1 MOL      0.081544
     82 H35         3.1670    6.9420    0.5810 hc        1 MOL      0.081544
     83 N9          0.1220    3.6990    2.1520 n         1 MOL     -0.544996
     84 C26        -1.0500    2.7940    1.9900 c3        1 MOL      0.078264
     85 C27        -1.7950    2.9890    0.6470 c         1 MOL      0.400640
     86 O15        -2.3020    4.0860    0.3100 o         1 MOL     -0.578370
     87 C28        -1.9720    2.9480    3.2190 c3        1 MOL      0.037034
     88 C29        -1.3550    2.1260    4.4290 c3        1 MOL      0.218828
     89 C30        -3.4440    2.6520    3.0370 c3        1 MOL     -0.019050
     90 C31        -1.8870    2.5930    5.8080 c3        1 MOL     -0.103785
     91 H36        -0.0220    4.5240    2.7190 hn        1 MOL      0.296693
     92 H37        -0.8210    1.7290    1.9840 h1        1 MOL     -0.110041
     93 H38        -1.9520    3.9820    3.5480 hc        1 MOL      0.001769
     94 H39        -0.2780    2.2770    4.5040 hc        1 MOL     -0.049104
     95 H40        -1.5270    1.0490    4.3290 hc        1 MOL     -0.049104
     96 H41        -3.9260    3.3030    2.3060 hc        1 MOL     -0.001571
     97 H42        -3.6150    1.6150    2.7470 hc        1 MOL     -0.001571
     98 H43        -3.9030    2.9310    3.9870 hc        1 MOL     -0.001571
     99 H44        -1.7000    3.6610    5.9110 hc        1 MOL      0.004100
    100 H45        -2.9540    2.3450    5.8380 hc        1 MOL      0.004100
    101 H46        -1.3630    2.1040    6.6270 hc        1 MOL      0.004100
    102 N10        -1.7050    2.0070   -0.2000 n         1 MOL     -0.074667
    103 C32        -2.5330    1.9060   -1.4140 c3        1 MOL     -0.030828
    104 C33        -3.9780    1.5170   -1.0990 c         1 MOL      0.612612
    105 O16        -4.3070    1.1960    0.0300 o         1 MOL     -0.452527
    106 C34        -1.8770    0.9560   -2.4170 c3        1 MOL     -0.185413
    107 C35        -0.4430    1.3750   -2.6660 c         1 MOL      0.679570
    108 O17         0.5210    0.9830   -1.9240 o         1 MOL     -0.660277
    109 O18        -0.1770    1.9370   -3.7880 o         1 MOL     -0.660277
    110 H47        -1.1860    1.1570   -0.0180 hn        1 MOL      0.165146
    111 H48        -2.5240    2.8760   -1.9140 h1        1 MOL      0.072993
    112 H49        -2.4960    1.0340   -3.3200 hc        1 MOL      0.046452
    113 H50        -1.9360   -0.0660   -2.0530 hc        1 MOL      0.046452
    114 N11        -4.8690    1.5410   -2.0800 n         1 MOL     -0.778588
    115 C36        -6.2660    1.4920   -1.6250 c3        1 MOL      0.402838
    116 C37        -6.6280    0.0970   -1.0730 c         1 MOL      0.369164
    117 O19        -7.2410    0.0310    0.0110 o         1 MOL     -0.482953
    118 C38        -7.2620    1.8880   -2.7290 c3        1 MOL     -0.074483
    119 C39        -8.6500    1.4510   -2.3930 ca        1 MOL      0.108899
    120 C40        -9.2340    1.9320   -1.1890 ca        1 MOL     -0.224942
    121 C41        -9.3660    0.5540   -3.2360 ca        1 MOL     -0.224942
    122 C42       -10.4830    1.4460   -0.7440 ca        1 MOL     -0.098755
    123 C43       -10.6350    0.1280   -2.7900 ca        1 MOL     -0.098755
    124 C44       -11.2400    0.5730   -1.5540 ca        1 MOL     -0.106051
    125 H51        -4.6270    1.8140   -3.0200 hn        1 MOL      0.377036
    126 H52        -6.4810    2.1780   -0.8090 h1        1 MOL      0.019494
    127 H53        -7.0240    1.4360   -3.6860 hc        1 MOL      0.017405
    128 H54        -7.2640    2.9540   -2.9370 hc        1 MOL      0.017405
    129 H55        -8.6180    2.4780   -0.4900 ha        1 MOL      0.139352
    130 H56        -8.9330    0.2900   -4.1820 ha        1 MOL      0.139352
    131 H57       -10.9190    1.7690    0.1850 ha        1 MOL      0.110281
    132 H58       -11.1680   -0.6140   -3.3610 ha        1 MOL      0.110281
    133 H59       -12.2620    0.2830   -1.3640 ha        1 MOL      0.099192
    134 N12        -6.1840   -0.9840   -1.7450 n         1 MOL     -0.087446
    135 C45        -6.4160   -2.2910   -1.2470 c3        1 MOL      0.052093
    136 C46        -5.7060   -2.6690    0.0110 c         1 MOL      0.301395
    137 O20        -6.0680   -3.6550    0.6280 o         1 MOL     -0.510742
    138 C47        -6.3200   -3.2830   -2.3530 c3        1 MOL     -0.103747
    139 C48        -6.1480   -2.4600   -3.6410 c3        1 MOL      0.118777
    140 C49        -5.6810   -1.0980   -3.1040 c3        1 MOL     -0.110929
    141 H60        -7.4600   -2.3730   -0.9200 h1        1 MOL      0.060817
    142 H61        -5.4410   -3.9250   -2.2450 hc        1 MOL      0.048479
    143 H62        -7.1860   -3.9400   -2.4480 hc        1 MOL      0.048479
    144 H63        -5.5030   -2.9300   -4.3800 hc        1 MOL     -0.021766
    145 H64        -7.0940   -2.2430   -4.1330 hc        1 MOL     -0.021766
    146 H65        -4.5940   -1.1170   -3.1290 h1        1 MOL      0.066419
    147 H66        -5.9580   -0.3780   -3.8800 h1        1 MOL      0.066419
    148 N13        -4.7280   -1.8900    0.3650 n         1 MOL     -0.092783
    149 C50        -4.1090   -2.0340    1.6710 c3        1 MOL     -0.004111
    150 C51        -4.8780   -1.3960    2.7670 c         1 MOL      0.454941
    151 O21        -5.0250   -2.0110    3.8290 o         1 MOL     -0.555026
    152 C52        -2.6330   -1.5440    1.7210 c3        1 MOL     -0.111471
    153 C53        -1.7650   -2.2400    0.6710 c3        1 MOL      0.016422
    154 C54        -0.3410   -1.6360    0.5710 c         1 MOL      0.549146
    155 O22        -0.0760   -0.4670    1.0100 o         1 MOL     -0.614886
    156 O23         0.5640   -2.1750   -0.0800 o         1 MOL     -0.614886
    157 H67        -4.7090   -0.9660   -0.0510 hn        1 MOL      0.071237
    158 H68        -4.1310   -3.0940    1.9120 h1        1 MOL      0.096098
    159 H69        -2.2470   -1.8220    2.6920 hc        1 MOL      0.048773
    160 H70        -2.6070   -0.4690    1.5050 hc        1 MOL      0.048773
    161 H71        -2.2610   -2.1260   -0.2940 hc        1 MOL      0.022001
    162 H72        -1.6170   -3.2920    0.9000 hc        1 MOL      0.022001
    163 N14        -5.5800   -0.2750    2.5250 n         1 MOL     -0.086255
    164 C55        -6.6450    0.1920    3.4890 c3        1 MOL     -0.299396
    165 H73        -6.1710    0.6140    4.3760 h1        1 MOL      0.108128
    166 H74        -7.2610    0.9530    3.0100 h1        1 MOL      0.108128
    167 H75        -7.2690   -0.6530    3.7790 h1        1 MOL      0.108128
    168 H76        -5.3210    0.3300    1.7590 hn        1 MOL      0.146378
    169 Ca1         2.1170    0.0470   -0.1870 Ca        1 MOL      1.643885
    170 O24         4.0960    0.8760    1.5200 oh        1 MOL     -0.740008
    171 H77         4.8910    0.4780    1.8760 ho        1 MOL      0.372638
    172 H78         3.5140    0.9570    2.2730 ho        1 MOL      0.372638
    173 O25         1.6550    0.1470    2.7550 oh        1 MOL     -0.740008
    174 H79         1.5100   -0.2970    3.5910 ho        1 MOL      0.372638
    175 H80         0.8090    0.1000    2.3130 ho        1 MOL      0.372638
@<TRIPOS>BOND
     1    1    2 1   
     2    1    4 1   
     3    1    5 1   
     4    1    6 1   
     5    2    3 2   
     6    2    7 1   
     7    7    8 1   
     8    7   15 1   
     9    8    9 1   
    10    8   11 1   
    11    8   16 1   
    12    9   10 2   
    13    9   19 1   
    14   11   12 1   
    15   11   17 1   
    16   11   18 1   
    17   12   13 1   
    18   12   14 1   
    19   19   20 1   
    20   19   24 1   
    21   20   21 1   
    22   20   23 1   
    23   20   25 1   
    24   21   22 2   
    25   21   29 1   
    26   23   26 1   
    27   23   27 1   
    28   23   28 1   
    29   29   30 1   
    30   29   37 1   
    31   30   31 1   
    32   30   33 1   
    33   30   38 1   
    34   31   32 2   
    35   31   41 1   
    36   33   34 1   
    37   33   39 1   
    38   33   40 1   
    39   34   35 1   
    40   34   36 1   
    41   41   42 1   
    42   41   45 1   
    43   42   43 1   
    44   42   46 1   
    45   42   47 1   
    46   43   44 2   
    47   43   48 1   
    48   48   49 1   
    49   48   56 1   
    50   49   50 1   
    51   49   52 1   
    52   49   57 1   
    53   50   51 2   
    54   50   62 1   
    55   52   53 1   
    56   52   58 1   
    57   52   59 1   
    58   53   54 1   
    59   53   55 2   
    60   54   60 1   
    61   54   61 1   
    62   62   63 1   
    63   62   66 1   
    64   63   64 1   
    65   63   67 1   
    66   63   68 1   
    67   64   65 2   
    68   64   69 1   
    69   69   70 1   
    70   69   76 1   
    71   70   71 1   
    72   70   73 1   
    73   70   77 1   
    74   71   72 2   
    75   71   83 1   
    76   73   74 1   
    77   73   75 1   
    78   73   78 1   
    79   74   80 1   
    80   74   81 1   
    81   74   82 1   
    82   75   79 1   
    83   83   84 1   
    84   83   91 1   
    85   84   85 1   
    86   84   87 1   
    87   84   92 1   
    88   85   86 2   
    89   85  102 1   
    90   87   88 1   
    91   87   89 1   
    92   87   93 1   
    93   88   90 1   
    94   88   94 1   
    95   88   95 1   
    96   89   96 1   
    97   89   97 1   
    98   89   98 1   
    99   90   99 1   
   100   90  100 1   
   101   90  101 1   
   102  102  103 1   
   103  102  110 1   
   104  103  104 1   
   105  103  106 1   
   106  103  111 1   
   107  104  105 2   
   108  104  114 1   
   109  106  107 1   
   110  106  112 1   
   111  106  113 1   
   112  107  108 1   
   113  107  109 1   
   114  114  115 1   
   115  114  125 1   
   116  115  116 1   
   117  115  118 1   
   118  115  126 1   
   119  116  117 2   
   120  116  134 1   
   121  118  119 1   
   122  118  127 1   
   123  118  128 1   
   124  119  120 ar  
   125  119  121 ar  
   126  120  122 ar  
   127  120  129 1   
   128  121  123 ar  
   129  121  130 1   
   130  122  124 ar  
   131  122  131 1   
   132  123  124 ar  
   133  123  132 1   
   134  124  133 1   
   135  134  135 1   
   136  134  140 1   
   137  135  136 1   
   138  135  138 1   
   139  135  141 1   
   140  136  137 2   
   141  136  148 1   
   142  138  139 1   
   143  138  142 1   
   144  138  143 1   
   145  139  140 1   
   146  139  144 1   
   147  139  145 1   
   148  140  146 1   
   149  140  147 1   
   150  148  149 1   
   151  148  157 1   
   152  149  150 1   
   153  149  152 1   
   154  149  158 1   
   155  150  151 2   
   156  150  163 1   
   157  152  153 1   
   158  152  159 1   
   159  152  160 1   
   160  153  154 1   
   161  153  161 1   
   162  153  162 1   
   163  154  155 1   
   164  154  156 1   
   165  163  164 1   
   166  163  168 1   
   167  164  165 1   
   168  164  166 1   
   169  164  167 1   
   170  170  171 1   
   171  170  172 1   
   172  173  174 1   
   173  173  175 1   
@<TRIPOS>SUBSTRUCTURE
     1 MOL         1 TEMP              0 ****  ****    0 ROOT
