@<TRIPOS>MOLECULE
MOL
  179   176     1     0     0
SMALL
resp


@<TRIPOS>ATOM
      1 C1          1.8090    2.6290    6.0190 c3        1 MOL     -0.359129
      2 C2          1.4250    2.3260    4.5870 c         1 MOL      0.758598
      3 O1          2.2720    2.2280    3.7590 o         1 MOL     -0.586241
      4 H1          2.2790    3.6110    6.0680 hc        1 MOL      0.085730
      5 H2          0.9160    2.6230    6.6450 hc        1 MOL      0.085730
      6 H3          2.5090    1.8730    6.3750 hc        1 MOL      0.085730
      7 N1          0.0970    2.2650    4.3340 n         1 MOL     -0.561546
      8 C3         -0.4630    2.2240    2.9910 c3        1 MOL      0.077422
      9 C4         -0.2980    3.5620    2.2780 c         1 MOL      0.457458
     10 O2         -0.7580    4.5630    2.7930 o         1 MOL     -0.541818
     11 C5         -1.9420    1.8070    3.1600 c3        1 MOL     -0.130529
     12 C6         -2.5930    1.6330    1.7930 c         1 MOL      0.696911
     13 O3         -1.9620    1.9530    0.6810 o         1 MOL     -0.684076
     14 O4         -3.7620    1.1530    1.7890 o         1 MOL     -0.684076
     15 H4         -0.5280    2.3190    5.1230 hn        1 MOL      0.300947
     16 H5          0.0120    1.3810    2.4930 h1        1 MOL      0.027253
     17 H6         -2.3750    2.7170    3.5810 hc        1 MOL      0.053832
     18 H7         -2.0680    0.9600    3.8320 hc        1 MOL      0.053832
     19 N2          0.4250    3.5400    1.1580 n         1 MOL     -0.078895
     20 C7          0.8850    4.7730    0.4980 c3        1 MOL     -0.142926
     21 C8         -0.0330    5.3550   -0.6160 c         1 MOL      0.528953
     22 O5          0.1580    6.5090   -1.0260 o         1 MOL     -0.538018
     23 C9          2.2690    4.4800   -0.0390 c3        1 MOL     -0.006964
     24 C10         3.1910    5.6910   -0.2110 c3        1 MOL     -0.166837
     25 C11         4.6880    5.2880   -0.5660 c3        1 MOL      0.010212
     26 C12         5.6640    6.5390   -0.6190 c3        1 MOL      0.043832
     27 N3          7.0010    6.0960   -1.0870 n4        1 MOL     -0.352240
     28 H8          0.8450    2.6380    0.9570 hn        1 MOL      0.164751
     29 H9          1.0100    5.5630    1.2350 h1        1 MOL      0.105378
     30 H10         2.1120    3.9850   -0.9970 hc        1 MOL      0.076386
     31 H11         2.8050    3.7050    0.5140 hc        1 MOL      0.076386
     32 H12         3.2030    6.3740    0.6400 hc        1 MOL      0.066746
     33 H13         2.8260    6.3440   -1.0070 hc        1 MOL      0.066746
     34 H14         4.7370    4.7550   -1.5050 hc        1 MOL      0.040602
     35 H15         5.0600    4.6950    0.2660 hc        1 MOL      0.040602
     36 H16         5.7580    6.9620    0.3790 hx        1 MOL      0.076900
     37 H17         5.1890    7.2620   -1.2810 hx        1 MOL      0.076900
     38 H18         7.2680    5.3460   -0.4680 hn        1 MOL      0.327231
     39 H19         6.9800    5.6480   -1.9950 hn        1 MOL      0.327231
     40 H20         7.6740    6.8530   -0.9920 hn        1 MOL      0.327231
     41 N4         -1.1810    4.6610   -0.9350 n         1 MOL     -0.226222
     42 C13        -2.3160    5.2790   -1.6280 c3        1 MOL     -0.016483
     43 C14        -3.7290    5.0810   -0.9840 c         1 MOL      0.480084
     44 O6         -4.6910    5.6810   -1.4670 o         1 MOL     -0.515321
     45 C15        -2.2740    4.7650   -3.0810 c3        1 MOL     -0.208327
     46 C16        -2.2690    3.2470   -3.1320 c         1 MOL      0.792887
     47 O7         -1.6510    2.7230   -4.1170 o         1 MOL     -0.709561
     48 O8         -2.7770    2.5100   -2.2010 o         1 MOL     -0.709561
     49 H21        -1.3800    3.8740   -0.3320 hn        1 MOL     -0.005189
     50 H22        -2.2040    6.3680   -1.6690 h1        1 MOL      0.106318
     51 H23        -1.3920    5.1780   -3.5580 hc        1 MOL      0.064189
     52 H24        -3.2110    5.0330   -3.5700 hc        1 MOL      0.064189
     53 N5         -3.8570    4.4120    0.1700 n         1 MOL     -0.319570
     54 C17        -5.1410    4.1090    0.8250 c3        1 MOL     -0.281605
     55 C18        -5.9940    3.0410    0.1060 c         1 MOL      0.513138
     56 O9         -7.2320    3.2040    0.2560 o         1 MOL     -0.563313
     57 H25        -3.0000    4.0340    0.5340 hn        1 MOL      0.290317
     58 H26        -5.7960    4.9810    0.7940 h1        1 MOL      0.152753
     59 H27        -4.9070    3.7530    1.8270 h1        1 MOL      0.152753
     60 N6         -5.4470    2.0650   -0.6330 n         1 MOL     -0.036451
     61 C19        -6.2840    1.0180   -1.1930 c3        1 MOL     -0.100078
     62 C20        -6.8530   -0.0140   -0.1280 c         1 MOL      0.283029
     63 O10        -7.7810   -0.7010   -0.4060 o         1 MOL     -0.424651
     64 C21        -5.7580    0.5640   -2.5790 c3        1 MOL     -0.052789
     65 C22        -4.8620   -0.6820   -2.4230 c         1 MOL      0.485739
     66 N7         -5.0340   -1.6860   -3.2750 n         1 MOL     -0.577192
     67 O11        -3.8950   -0.7180   -1.6770 o         1 MOL     -0.616616
     68 H28        -4.4900    2.1370   -0.9600 hn        1 MOL      0.091402
     69 H29        -7.1700    1.5480   -1.5490 h1        1 MOL      0.102199
     70 H30        -5.1640    1.3770   -2.9850 hc        1 MOL      0.062177
     71 H31        -6.5840    0.4750   -3.2930 hc        1 MOL      0.062177
     72 H32        -5.7300   -1.5190   -3.9750 hn        1 MOL      0.312181
     73 H33        -4.4330   -2.4980   -3.1800 hn        1 MOL      0.312181
     74 N8         -6.1420   -0.1030    1.0350 n         1 MOL     -0.044467
     75 C23        -6.3340   -1.0890    2.0920 c3        1 MOL     -0.251966
     76 C24        -5.3960   -2.2720    1.9250 c         1 MOL      0.695710
     77 O12        -5.7080   -3.2890    2.5420 o         1 MOL     -0.561349
     78 H34        -5.3030    0.4610    1.0390 hn        1 MOL      0.113246
     79 H35        -7.3440   -1.4560    2.2740 h1        1 MOL      0.118181
     80 H36        -5.9460   -0.5970    2.9780 h1        1 MOL      0.118181
     81 N9         -4.3790   -2.1690    1.0210 n         1 MOL     -0.541259
     82 C25        -3.3790   -3.1460    0.7170 c3        1 MOL      0.236490
     83 C26        -1.9150   -2.6010    0.6220 c         1 MOL      0.566461
     84 O13        -1.7130   -1.3950    0.2520 o         1 MOL     -0.725528
     85 C27        -3.7930   -3.9240   -0.5690 c3        1 MOL      0.005540
     86 C28        -5.1140   -4.6560   -0.3890 ca        1 MOL      0.072616
     87 C29        -6.3050   -3.9260   -0.5610 ca        1 MOL     -0.224702
     88 C30        -5.2500   -6.0590   -0.2750 ca        1 MOL     -0.224702
     89 C31        -7.5550   -4.5310   -0.3400 ca        1 MOL     -0.205968
     90 C32        -6.4710   -6.7120   -0.0100 ca        1 MOL     -0.205968
     91 C33        -7.6910   -5.9250   -0.0770 ca        1 MOL      0.336921
     92 O14        -8.8970   -6.5540    0.0330 oh        1 MOL     -0.487383
     93 H37        -4.3220   -1.4160    0.3510 hn        1 MOL      0.374166
     94 H38        -3.3430   -3.9180    1.4920 h1        1 MOL     -0.004228
     95 H39        -3.0580   -4.6620   -0.8740 hc        1 MOL      0.002727
     96 H40        -3.8640   -3.1890   -1.3730 hc        1 MOL      0.002727
     97 H41        -6.2650   -2.8630   -0.7730 ha        1 MOL      0.118215
     98 H42        -4.3470   -6.6440   -0.4050 ha        1 MOL      0.118215
     99 H43        -8.4330   -3.9030   -0.3690 ha        1 MOL      0.131912
    100 H44        -6.5260   -7.7850    0.1490 ha        1 MOL      0.131912
    101 H45        -8.8310   -7.4870    0.2410 ho        1 MOL      0.360224
    102 N10        -0.8900   -3.4670    0.8930 n         1 MOL     -0.576021
    103 C34         0.5340   -2.9830    1.0450 c3        1 MOL      0.022695
    104 C35         1.5570   -3.8860    0.4110 c         1 MOL      0.507626
    105 O15         1.6340   -5.0960    0.7210 o         1 MOL     -0.551391
    106 C36         0.9110   -2.6190    2.5850 c3        1 MOL      0.031825
    107 C37        -0.0220   -1.7660    3.3440 c3        1 MOL      0.425351
    108 C38         2.3290   -1.8580    2.4960 c3        1 MOL     -0.362000
    109 C39         0.4710   -1.3530    4.7240 c3        1 MOL     -0.473062
    110 H46        -1.1350   -4.3880    1.2470 hn        1 MOL      0.335391
    111 H47         0.6780   -2.0590    0.4820 h1        1 MOL      0.137296
    112 H48         0.9460   -3.5250    3.1870 hc        1 MOL     -0.002270
    113 H49        -1.0000   -2.2360    3.4810 hc        1 MOL     -0.074792
    114 H50        -0.2190   -0.8870    2.7430 hc        1 MOL     -0.074792
    115 H51         3.0340   -2.5230    2.0090 hc        1 MOL      0.091627
    116 H52         2.1950   -0.8790    2.0190 hc        1 MOL      0.091627
    117 H53         2.7730   -1.7300    3.4810 hc        1 MOL      0.091627
    118 H54        -0.3550   -0.9270    5.3010 hc        1 MOL      0.104240
    119 H55         0.8020   -2.3010    5.1640 hc        1 MOL      0.104240
    120 H56         1.3160   -0.6970    4.5380 hc        1 MOL      0.104240
    121 N11         2.3430   -3.3580   -0.5250 n         1 MOL     -0.286047
    122 C40         3.3690   -4.1010   -1.1780 c3        1 MOL     -0.003824
    123 C41         4.7190   -4.0480   -0.4100 c         1 MOL      0.404087
    124 O16         4.9560   -3.1020    0.3700 o         1 MOL     -0.362965
    125 C42         3.4310   -3.5190   -2.5580 c3        1 MOL     -0.205233
    126 O17         4.2350   -2.3560   -2.5390 oh        1 MOL     -0.353028
    127 H57         2.2540   -2.3570   -0.6420 hn        1 MOL      0.337052
    128 H58         3.1490   -5.1630   -1.3120 h1        1 MOL      0.089889
    129 H59         2.4140   -3.2480   -2.8520 h1        1 MOL      0.109029
    130 H60         3.9150   -4.1250   -3.3220 h1        1 MOL      0.109029
    131 H61         3.9790   -1.8180   -3.2920 ho        1 MOL      0.359983
    132 N12         5.6830   -4.8760   -0.7810 n         1 MOL     -0.337675
    133 C43         7.0620   -4.7850   -0.2120 c3        1 MOL      0.020868
    134 C44         7.6900   -3.4780   -0.5950 c         1 MOL      0.571492
    135 O18         8.4120   -2.9290    0.2580 o         1 MOL     -0.502493
    136 C45         7.8670   -6.0320   -0.4980 c3        1 MOL     -0.283433
    137 H62         5.3660   -5.6990   -1.2740 hn        1 MOL      0.273012
    138 H63         6.9170   -4.9300    0.8560 h1        1 MOL      0.128840
    139 H64         7.9470   -6.1870   -1.5720 hc        1 MOL      0.094217
    140 H65         8.9230   -5.9960   -0.2280 hc        1 MOL      0.094217
    141 H66         7.3740   -6.9410   -0.1340 hc        1 MOL      0.094217
    142 N13         7.3960   -2.9430   -1.8640 n         1 MOL     -0.501388
    143 C46         7.7750   -1.5850   -2.2610 c3        1 MOL      0.197514
    144 C47         7.2350   -0.4240   -1.4390 c         1 MOL      0.402602
    145 O19         7.9060    0.5720   -1.3240 o         1 MOL     -0.539516
    146 C48         7.3430   -1.4310   -3.7430 c3        1 MOL     -0.354719
    147 H67         6.7930   -3.4870   -2.4630 hn        1 MOL      0.288789
    148 H68         8.8580   -1.4710   -2.1600 h1        1 MOL      0.070843
    149 H69         6.2680   -1.3860   -3.9250 hc        1 MOL      0.097380
    150 H70         7.6690   -0.4050   -3.9060 hc        1 MOL      0.097380
    151 H71         7.7880   -2.1630   -4.4230 hc        1 MOL      0.097380
    152 N14         6.0440   -0.5770   -0.7560 n         1 MOL      0.072841
    153 C49         5.4730    0.3900    0.1310 c3        1 MOL     -0.019992
    154 C50         6.0330    0.2070    1.5680 c         1 MOL      0.479043
    155 O20         6.1030    1.1770    2.2450 o         1 MOL     -0.542103
    156 C51         3.9370    0.4550    0.0450 c3        1 MOL     -0.083423
    157 C52         3.3100    1.0810   -1.2590 c3        1 MOL     -0.063484
    158 C53         1.7470    1.1660   -1.2930 c         1 MOL      0.631613
    159 O21         1.1300    1.7180   -2.2040 o         1 MOL     -0.750045
    160 O22         1.0510    0.8100   -0.3580 o         1 MOL     -0.750045
    161 H72         5.5660   -1.4420   -0.9620 hn        1 MOL     -0.212182
    162 H73         5.8730    1.3490   -0.2180 h1        1 MOL     -0.004178
    163 H74         3.6140    0.9540    0.9600 hc        1 MOL      0.071230
    164 H75         3.4900   -0.5290    0.1650 hc        1 MOL      0.071230
    165 H76         3.7450    0.5360   -2.0990 hc        1 MOL      0.006340
    166 H77         3.6420    2.1120   -1.3680 hc        1 MOL      0.006340
    167 N15         6.3680   -1.0040    2.0390 n         1 MOL     -0.153336
    168 C54         6.9660   -1.1850    3.3770 c3        1 MOL     -0.155371
    169 H78         7.4060   -0.2440    3.7080 h1        1 MOL      0.084233
    170 H79         6.1940   -1.4940    4.0820 h1        1 MOL      0.084233
    171 H80         7.7410   -1.9500    3.3290 h1        1 MOL      0.084233
    172 H81         6.3010   -1.7390    1.3420 hn        1 MOL      0.100583
    173 Ca1        -1.2300    0.6010   -1.3590 Ca        1 MOL      1.787769
    174 O23         0.1400   -1.5700   -2.1910 oh        1 MOL     -0.817871
    175 H82        -0.1330   -2.4540   -2.4170 ho        1 MOL      0.388079
    176 H83         0.3870   -1.1710   -3.0240 ho        1 MOL      0.388079
    177 O24        -1.5670    0.0930   -4.0830 oh        1 MOL     -0.817871
    178 H84        -1.5700    0.9760   -4.4540 ho        1 MOL      0.388079
    179 H85        -1.2350   -0.4650   -4.7830 ho        1 MOL      0.388079
@<TRIPOS>BOND
     1    1    2 1   
     2    1    4 1   
     3    1    5 1   
     4    1    6 1   
     5    2    3 2   
     6    2    7 1   
     7    7    8 1   
     8    7   15 1   
     9    8    9 1   
    10    8   11 1   
    11    8   16 1   
    12    9   10 2   
    13    9   19 1   
    14   11   12 1   
    15   11   17 1   
    16   11   18 1   
    17   12   13 1   
    18   12   14 1   
    19   19   20 1   
    20   19   28 1   
    21   20   21 1   
    22   20   23 1   
    23   20   29 1   
    24   21   22 2   
    25   21   41 1   
    26   23   24 1   
    27   23   30 1   
    28   23   31 1   
    29   24   25 1   
    30   24   32 1   
    31   24   33 1   
    32   25   26 1   
    33   25   34 1   
    34   25   35 1   
    35   26   27 1   
    36   26   36 1   
    37   26   37 1   
    38   27   38 1   
    39   27   39 1   
    40   27   40 1   
    41   41   42 1   
    42   41   49 1   
    43   42   43 1   
    44   42   45 1   
    45   42   50 1   
    46   43   44 2   
    47   43   53 1   
    48   45   46 1   
    49   45   51 1   
    50   45   52 1   
    51   46   47 1   
    52   46   48 1   
    53   53   54 1   
    54   53   57 1   
    55   54   55 1   
    56   54   58 1   
    57   54   59 1   
    58   55   56 2   
    59   55   60 1   
    60   60   61 1   
    61   60   68 1   
    62   61   62 1   
    63   61   64 1   
    64   61   69 1   
    65   62   63 2   
    66   62   74 1   
    67   64   65 1   
    68   64   70 1   
    69   64   71 1   
    70   65   66 1   
    71   65   67 2   
    72   66   72 1   
    73   66   73 1   
    74   74   75 1   
    75   74   78 1   
    76   75   76 1   
    77   75   79 1   
    78   75   80 1   
    79   76   77 2   
    80   76   81 1   
    81   81   82 1   
    82   81   93 1   
    83   82   83 1   
    84   82   85 1   
    85   82   94 1   
    86   83   84 2   
    87   83  102 1   
    88   85   86 1   
    89   85   95 1   
    90   85   96 1   
    91   86   87 ar  
    92   86   88 ar  
    93   87   89 ar  
    94   87   97 1   
    95   88   90 ar  
    96   88   98 1   
    97   89   91 ar  
    98   89   99 1   
    99   90   91 ar  
   100   90  100 1   
   101   91   92 1   
   102   92  101 1   
   103  102  103 1   
   104  102  110 1   
   105  103  104 1   
   106  103  106 1   
   107  103  111 1   
   108  104  105 2   
   109  104  121 1   
   110  106  107 1   
   111  106  108 1   
   112  106  112 1   
   113  107  109 1   
   114  107  113 1   
   115  107  114 1   
   116  108  115 1   
   117  108  116 1   
   118  108  117 1   
   119  109  118 1   
   120  109  119 1   
   121  109  120 1   
   122  121  122 1   
   123  121  127 1   
   124  122  123 1   
   125  122  125 1   
   126  122  128 1   
   127  123  124 2   
   128  123  132 1   
   129  125  126 1   
   130  125  129 1   
   131  125  130 1   
   132  126  131 1   
   133  132  133 1   
   134  132  137 1   
   135  133  134 1   
   136  133  136 1   
   137  133  138 1   
   138  134  135 2   
   139  134  142 1   
   140  136  139 1   
   141  136  140 1   
   142  136  141 1   
   143  142  143 1   
   144  142  147 1   
   145  143  144 1   
   146  143  146 1   
   147  143  148 1   
   148  144  145 2   
   149  144  152 1   
   150  146  149 1   
   151  146  150 1   
   152  146  151 1   
   153  152  153 1   
   154  152  161 1   
   155  153  154 1   
   156  153  156 1   
   157  153  162 1   
   158  154  155 2   
   159  154  167 1   
   160  156  157 1   
   161  156  163 1   
   162  156  164 1   
   163  157  158 1   
   164  157  165 1   
   165  157  166 1   
   166  158  159 1   
   167  158  160 1   
   168  167  168 1   
   169  167  172 1   
   170  168  169 1   
   171  168  170 1   
   172  168  171 1   
   173  174  175 1   
   174  174  176 1   
   175  177  178 1   
   176  177  179 1   
@<TRIPOS>SUBSTRUCTURE
     1 MOL         1 TEMP              0 ****  ****    0 ROOT
