@<TRIPOS>MOLECULE
MOL
  179   176     1     0     0
SMALL
resp


@<TRIPOS>ATOM
      1 C1         -1.4660   -2.9150    6.0950 c3        1 MOL     -0.292497
      2 C2         -1.0820   -2.4940    4.6150 c         1 MOL      0.731507
      3 O1         -1.9630   -2.2960    3.7990 o         1 MOL     -0.589680
      4 H1         -0.8370   -2.3730    6.8000 hc        1 MOL      0.076854
      5 H2         -2.5120   -2.6730    6.2810 hc        1 MOL      0.076854
      6 H3         -1.3120   -3.9870    6.2200 hc        1 MOL      0.076854
      7 N1          0.2350   -2.4310    4.2850 n         1 MOL     -0.637711
      8 C3          0.5970   -2.2910    2.8520 c3        1 MOL      0.049910
      9 C4          0.6010   -3.6580    2.1330 c         1 MOL      0.701064
     10 O2          1.3240   -4.5370    2.5140 o         1 MOL     -0.572562
     11 C5          1.9550   -1.7100    2.8100 c3        1 MOL     -0.066539
     12 C6          2.5260   -1.3790    1.4140 c         1 MOL      0.810535
     13 O3          2.2050   -1.9290    0.3770 o         1 MOL     -0.768254
     14 O4          3.5740   -0.7340    1.3890 o         1 MOL     -0.768254
     15 H4          0.9330   -2.7060    4.9650 hn        1 MOL      0.345456
     16 H5         -0.0060   -1.5370    2.3590 h1        1 MOL     -0.176924
     17 H6          2.7040   -2.3330    3.3010 hc        1 MOL      0.029365
     18 H7          1.9180   -0.7580    3.3400 hc        1 MOL      0.029365
     19 N2         -0.1890   -3.8340    1.0370 n         1 MOL     -0.454100
     20 C7         -0.3090   -5.0500    0.2740 c3        1 MOL      0.002359
     21 C8          0.9210   -5.5430   -0.5090 c         1 MOL      0.363659
     22 O5          0.9720   -6.7570   -0.8170 o         1 MOL     -0.547555
     23 C9         -1.5000   -5.0230   -0.6500 c3        1 MOL     -0.019113
     24 C10        -2.8470   -4.9210    0.0670 c3        1 MOL     -0.023466
     25 C11        -4.0570   -4.9280   -0.9250 c3        1 MOL     -0.076892
     26 C12        -5.3380   -5.2580   -0.2230 c3        1 MOL      0.063865
     27 N3         -6.5510   -4.5770   -0.7870 n4        1 MOL     -0.407439
     28 H8         -0.5560   -2.9870    0.6240 hn        1 MOL      0.356962
     29 H9         -0.5330   -5.7930    1.0370 h1        1 MOL      0.083838
     30 H10        -1.4200   -5.9730   -1.1880 hc        1 MOL      0.049029
     31 H11        -1.4310   -4.1450   -1.2920 hc        1 MOL      0.049029
     32 H12        -2.8420   -4.0300    0.6900 hc        1 MOL      0.039449
     33 H13        -2.8520   -5.7420    0.7890 hc        1 MOL      0.039449
     34 H14        -3.8550   -5.6410   -1.7290 hc        1 MOL      0.039240
     35 H15        -4.2100   -3.9850   -1.4320 hc        1 MOL      0.039240
     36 H16        -5.1740   -4.9450    0.8060 hx        1 MOL      0.076767
     37 H17        -5.5260   -6.3320   -0.2540 hx        1 MOL      0.076767
     38 H18        -7.3500   -4.8250   -0.2190 hn        1 MOL      0.340458
     39 H19        -6.4590   -3.5800   -0.8930 hn        1 MOL      0.340458
     40 H20        -6.6420   -4.9020   -1.7440 hn        1 MOL      0.340458
     41 N4          1.8230   -4.6270   -0.9130 n         1 MOL      0.017067
     42 C13         2.9720   -4.8430   -1.8170 c3        1 MOL      0.052892
     43 C14         4.2570   -4.7870   -0.9820 c         1 MOL      0.401554
     44 O6          5.1960   -5.3730   -1.4700 o         1 MOL     -0.493404
     45 C15         2.9020   -3.8600   -2.9810 c3        1 MOL      0.202541
     46 C16         1.6340   -3.5560   -3.6200 c         1 MOL      0.494758
     47 O7          0.8720   -2.7150   -3.0910 o         1 MOL     -0.668668
     48 O8          1.3130   -4.2350   -4.6500 o         1 MOL     -0.668668
     49 H21         1.7010   -3.7300   -0.4530 hn        1 MOL     -0.114231
     50 H22         3.0630   -5.8570   -2.2070 h1        1 MOL      0.054935
     51 H23         3.6730   -4.2540   -3.6510 hc        1 MOL     -0.070151
     52 H24         3.3160   -2.9020   -2.6470 hc        1 MOL     -0.070151
     53 N5          4.2190   -3.9470    0.0960 n         1 MOL     -0.229297
     54 C17         5.3310   -3.8590    1.0510 c3        1 MOL     -0.188999
     55 C18         6.3720   -2.8730    0.6360 c         1 MOL      0.529092
     56 O9          7.5160   -3.1110    0.8830 o         1 MOL     -0.543802
     57 H25         3.3340   -3.5040    0.2850 hn        1 MOL      0.225680
     58 H26         5.7300   -4.8610    1.1910 h1        1 MOL      0.120125
     59 H27         4.8340   -3.5160    1.9600 h1        1 MOL      0.120125
     60 N6          5.9490   -1.8340   -0.0840 n         1 MOL     -0.201917
     61 C19         6.8620   -0.7810   -0.5800 c3        1 MOL      0.021707
     62 C20         6.8900    0.4820    0.3830 c         1 MOL      0.302197
     63 O10         7.8290    1.2680    0.2370 o         1 MOL     -0.506182
     64 C21         6.4060   -0.4040   -1.9750 c3        1 MOL     -0.157431
     65 C22         5.0260    0.4050   -2.0450 c         1 MOL      0.408972
     66 N7          4.9930    1.5320   -2.6710 n         1 MOL     -0.562330
     67 O11         3.9060   -0.0890   -1.8420 o         1 MOL     -0.473009
     68 H28         4.9810   -1.7540   -0.3890 hn        1 MOL      0.134434
     69 H29         7.9080   -1.1020   -0.6260 h1        1 MOL      0.105492
     70 H30         6.4370   -1.2990   -2.5950 hc        1 MOL      0.094913
     71 H31         7.1960    0.2110   -2.3940 hc        1 MOL      0.094913
     72 H32         5.7970    2.0100   -3.0570 hn        1 MOL      0.311989
     73 H33         4.1730    1.9020   -3.1130 hn        1 MOL      0.311989
     74 N8          6.0740    0.5840    1.3720 n         1 MOL     -0.049274
     75 C23         6.0420    1.7270    2.3330 c3        1 MOL     -0.349833
     76 C24         4.9700    2.7500    1.9360 c         1 MOL      0.543643
     77 O12         5.0120    3.8710    2.4000 o         1 MOL     -0.525706
     78 H34         5.5380   -0.2610    1.5310 hn        1 MOL      0.195439
     79 H35         7.0140    2.2180    2.3570 h1        1 MOL      0.161736
     80 H36         5.7950    1.3240    3.3090 h1        1 MOL      0.161736
     81 N9          4.0750    2.3610    1.0590 n         1 MOL     -0.230672
     82 C25         2.8900    3.1700    0.8100 c3        1 MOL      0.313204
     83 C26         1.6100    2.3820    0.7640 c         1 MOL      0.151492
     84 O13         1.5420    1.2950    0.2160 o         1 MOL     -0.481250
     85 C27         3.1390    3.9630   -0.5000 c3        1 MOL      0.089290
     86 C28         4.3770    4.8650   -0.4610 ca        1 MOL     -0.144789
     87 C29         5.6680    4.3110   -0.6280 ca        1 MOL     -0.053445
     88 C30         4.2620    6.2330   -0.2580 ca        1 MOL     -0.053445
     89 C31         6.7990    5.1200   -0.6370 ca        1 MOL     -0.341654
     90 C32         5.4330    7.1040   -0.3360 ca        1 MOL     -0.341654
     91 C33         6.7090    6.4950   -0.5210 ca        1 MOL      0.416903
     92 O14         7.8980    7.2250   -0.5490 oh        1 MOL     -0.470103
     93 H37         4.1470    1.4110    0.7380 hn        1 MOL      0.179187
     94 H38         2.7930    3.9060    1.6080 h1        1 MOL     -0.025878
     95 H39         2.2540    4.5710   -0.6720 hc        1 MOL     -0.031730
     96 H40         3.4040    3.2470   -1.2810 hc        1 MOL     -0.031730
     97 H41         5.8480    3.2620   -0.8330 ha        1 MOL      0.112303
     98 H42         3.3270    6.7240   -0.0200 ha        1 MOL      0.112303
     99 H43         7.7060    4.5330   -0.6390 ha        1 MOL      0.162466
    100 H44         5.3020    8.1730   -0.2460 ha        1 MOL      0.162466
    101 H45         7.6010    8.1080   -0.2830 ho        1 MOL      0.331855
    102 N10         0.5520    3.0580    1.2200 n         1 MOL     -0.240188
    103 C34        -0.8690    2.5550    1.0430 c3        1 MOL     -0.253192
    104 C35        -1.6150    3.5380    0.1760 c         1 MOL      0.480184
    105 O15        -1.3810    4.7620    0.1090 o         1 MOL     -0.539099
    106 C36        -1.5750    2.1130    2.3110 c3        1 MOL     -0.065263
    107 C37        -1.8200    3.4060    3.2520 c3        1 MOL     -0.303345
    108 C38        -0.8020    0.8990    2.8630 c3        1 MOL     -0.396588
    109 C39        -2.6200    3.1560    4.6030 c3        1 MOL     -0.147874
    110 H46         0.6700    3.9900    1.5880 hn        1 MOL      0.294077
    111 H47        -0.8560    1.6710    0.4050 h1        1 MOL      0.374254
    112 H48        -2.5530    1.7120    2.0280 hc        1 MOL      0.090027
    113 H49        -2.2740    4.1520    2.6010 hc        1 MOL      0.128198
    114 H50        -0.8320    3.7860    3.5110 hc        1 MOL      0.128198
    115 H51        -0.7210    0.1900    2.0310 hc        1 MOL      0.172373
    116 H52         0.2090    1.2260    3.1200 hc        1 MOL      0.172373
    117 H53        -1.3880    0.4410    3.6550 hc        1 MOL      0.172373
    118 H54        -2.0950    2.4680    5.2610 hc        1 MOL      0.060917
    119 H55        -2.8100    4.0590    5.1910 hc        1 MOL      0.060917
    120 H56        -3.4970    2.5330    4.4100 hc        1 MOL      0.060917
    121 N11        -2.5230    2.9230   -0.5640 n         1 MOL      0.026142
    122 C40        -3.4840    3.5910   -1.3500 c3        1 MOL     -0.089311
    123 C41        -4.8380    3.5450   -0.6620 c         1 MOL      0.508655
    124 O16        -5.0500    2.9230    0.4060 o         1 MOL     -0.469126
    125 C42        -3.5840    2.9880   -2.7350 c3        1 MOL     -0.132867
    126 O17        -3.8050    1.5750   -2.7210 oh        1 MOL     -0.516967
    127 H57        -2.6660    1.9290   -0.4590 hn        1 MOL     -0.046695
    128 H58        -3.1300    4.6210   -1.4390 h1        1 MOL      0.078329
    129 H59        -2.6620    3.2230   -3.2710 h1        1 MOL      0.108452
    130 H60        -4.4560    3.3290   -3.2960 h1        1 MOL      0.108452
    131 H61        -2.9060    1.2480   -2.6660 ho        1 MOL      0.414040
    132 N12        -5.8630    4.1440   -1.1710 n         1 MOL     -0.381332
    133 C43        -7.2810    4.0160   -0.7110 c3        1 MOL      0.009198
    134 C44        -7.8680    2.6340   -0.8540 c         1 MOL      0.526768
    135 O18        -8.6440    2.2360    0.0060 o         1 MOL     -0.478760
    136 C45        -8.2040    5.0780   -1.4010 c3        1 MOL     -0.453524
    137 H62        -5.8200    4.6220   -2.0670 hn        1 MOL      0.270986
    138 H63        -7.2680    4.3550    0.3250 h1        1 MOL      0.141260
    139 H64        -7.9260    6.0690   -1.0510 hc        1 MOL      0.145656
    140 H65        -8.0740    5.2040   -2.4830 hc        1 MOL      0.145656
    141 H66        -9.2210    4.8510   -1.0840 hc        1 MOL      0.145656
    142 N13        -7.5530    1.9170   -1.9630 n         1 MOL     -0.467244
    143 C46        -7.8560    0.5210   -2.1740 c3        1 MOL      0.173909
    144 C47        -7.2430   -0.3830   -1.1230 c         1 MOL      0.395979
    145 O19        -7.9670   -1.2340   -0.6080 o         1 MOL     -0.538167
    146 C48        -7.6580    0.1070   -3.6490 c3        1 MOL     -0.300679
    147 H67        -6.9770    2.3750   -2.6570 hn        1 MOL      0.307509
    148 H68        -8.9100    0.4640   -1.9330 h1        1 MOL      0.085993
    149 H69        -7.7690   -0.9790   -3.6560 hc        1 MOL      0.090965
    150 H70        -8.3000    0.6900   -4.3060 hc        1 MOL      0.090965
    151 H71        -6.6150    0.3140   -3.8740 hc        1 MOL      0.090965
    152 N14        -5.9550   -0.1830   -0.7420 n         1 MOL     -0.279312
    153 C49        -5.2880   -0.7670    0.4310 c3        1 MOL     -0.150086
    154 C50        -5.9950   -0.3980    1.7720 c         1 MOL      0.551514
    155 O20        -6.1450   -1.3220    2.5780 o         1 MOL     -0.534981
    156 C51        -3.8330   -0.3630    0.4350 c3        1 MOL     -0.160951
    157 C52        -3.0320   -1.0900   -0.6280 c3        1 MOL      0.175488
    158 C53        -1.5920   -0.7170   -0.7820 c         1 MOL      0.460272
    159 O21        -0.7310   -1.3780   -0.1660 o         1 MOL     -0.689256
    160 O22        -1.3080    0.2520   -1.4110 o         1 MOL     -0.689256
    161 H72        -5.5220    0.6430   -1.1280 hn        1 MOL      0.192852
    162 H73        -5.3820   -1.8490    0.3310 h1        1 MOL      0.097442
    163 H74        -3.3320   -0.6810    1.3460 hc        1 MOL      0.129486
    164 H75        -3.6930    0.7090    0.4030 hc        1 MOL      0.129486
    165 H76        -3.4550   -0.9080   -1.6150 hc        1 MOL     -0.047116
    166 H77        -3.1470   -2.1580   -0.4750 hc        1 MOL     -0.047116
    167 N15        -6.4340    0.9040    2.0020 n         1 MOL     -0.192376
    168 C54        -6.9810    1.3840    3.2680 c3        1 MOL     -0.211518
    169 H78        -6.2600    2.0470    3.7470 h1        1 MOL      0.097014
    170 H79        -7.9070    1.9280    3.0830 h1        1 MOL      0.097014
    171 H80        -7.1830    0.5350    3.9220 h1        1 MOL      0.097014
    172 H81        -6.2860    1.5900    1.2800 hn        1 MOL      0.177931
    173 Ca1         1.3010   -0.5040   -1.5250 Ca        1 MOL      1.765795
    174 O23         2.3250   -0.0030   -4.0750 oh        1 MOL     -0.891307
    175 H82         2.0220    0.3000   -4.9350 ho        1 MOL      0.431339
    176 H83         3.1670   -0.4380   -4.2590 ho        1 MOL      0.431339
    177 O24         0.9980    2.2070   -2.5600 oh        1 MOL     -0.891307
    178 H84         0.2690    2.7950   -2.7490 ho        1 MOL      0.431339
    179 H85         1.6760    2.4520   -3.1920 ho        1 MOL      0.431339
@<TRIPOS>BOND
     1    1    2 1   
     2    1    4 1   
     3    1    5 1   
     4    1    6 1   
     5    2    3 2   
     6    2    7 1   
     7    7    8 1   
     8    7   15 1   
     9    8    9 1   
    10    8   11 1   
    11    8   16 1   
    12    9   10 2   
    13    9   19 1   
    14   11   12 1   
    15   11   17 1   
    16   11   18 1   
    17   12   13 1   
    18   12   14 1   
    19   19   20 1   
    20   19   28 1   
    21   20   21 1   
    22   20   23 1   
    23   20   29 1   
    24   21   22 2   
    25   21   41 1   
    26   23   24 1   
    27   23   30 1   
    28   23   31 1   
    29   24   25 1   
    30   24   32 1   
    31   24   33 1   
    32   25   26 1   
    33   25   34 1   
    34   25   35 1   
    35   26   27 1   
    36   26   36 1   
    37   26   37 1   
    38   27   38 1   
    39   27   39 1   
    40   27   40 1   
    41   41   42 1   
    42   41   49 1   
    43   42   43 1   
    44   42   45 1   
    45   42   50 1   
    46   43   44 2   
    47   43   53 1   
    48   45   46 1   
    49   45   51 1   
    50   45   52 1   
    51   46   47 1   
    52   46   48 1   
    53   53   54 1   
    54   53   57 1   
    55   54   55 1   
    56   54   58 1   
    57   54   59 1   
    58   55   56 2   
    59   55   60 1   
    60   60   61 1   
    61   60   68 1   
    62   61   62 1   
    63   61   64 1   
    64   61   69 1   
    65   62   63 2   
    66   62   74 1   
    67   64   65 1   
    68   64   70 1   
    69   64   71 1   
    70   65   66 1   
    71   65   67 2   
    72   66   72 1   
    73   66   73 1   
    74   74   75 1   
    75   74   78 1   
    76   75   76 1   
    77   75   79 1   
    78   75   80 1   
    79   76   77 2   
    80   76   81 1   
    81   81   82 1   
    82   81   93 1   
    83   82   83 1   
    84   82   85 1   
    85   82   94 1   
    86   83   84 2   
    87   83  102 1   
    88   85   86 1   
    89   85   95 1   
    90   85   96 1   
    91   86   87 ar  
    92   86   88 ar  
    93   87   89 ar  
    94   87   97 1   
    95   88   90 ar  
    96   88   98 1   
    97   89   91 ar  
    98   89   99 1   
    99   90   91 ar  
   100   90  100 1   
   101   91   92 1   
   102   92  101 1   
   103  102  103 1   
   104  102  110 1   
   105  103  104 1   
   106  103  106 1   
   107  103  111 1   
   108  104  105 2   
   109  104  121 1   
   110  106  107 1   
   111  106  108 1   
   112  106  112 1   
   113  107  109 1   
   114  107  113 1   
   115  107  114 1   
   116  108  115 1   
   117  108  116 1   
   118  108  117 1   
   119  109  118 1   
   120  109  119 1   
   121  109  120 1   
   122  121  122 1   
   123  121  127 1   
   124  122  123 1   
   125  122  125 1   
   126  122  128 1   
   127  123  124 2   
   128  123  132 1   
   129  125  126 1   
   130  125  129 1   
   131  125  130 1   
   132  126  131 1   
   133  132  133 1   
   134  132  137 1   
   135  133  134 1   
   136  133  136 1   
   137  133  138 1   
   138  134  135 2   
   139  134  142 1   
   140  136  139 1   
   141  136  140 1   
   142  136  141 1   
   143  142  143 1   
   144  142  147 1   
   145  143  144 1   
   146  143  146 1   
   147  143  148 1   
   148  144  145 2   
   149  144  152 1   
   150  146  149 1   
   151  146  150 1   
   152  146  151 1   
   153  152  153 1   
   154  152  161 1   
   155  153  154 1   
   156  153  156 1   
   157  153  162 1   
   158  154  155 2   
   159  154  167 1   
   160  156  157 1   
   161  156  163 1   
   162  156  164 1   
   163  157  158 1   
   164  157  165 1   
   165  157  166 1   
   166  158  159 1   
   167  158  160 1   
   168  167  168 1   
   169  167  172 1   
   170  168  169 1   
   171  168  170 1   
   172  168  171 1   
   173  174  175 1   
   174  174  176 1   
   175  177  178 1   
   176  177  179 1   
@<TRIPOS>SUBSTRUCTURE
     1 MOL         1 TEMP              0 ****  ****    0 ROOT
