@<TRIPOS>MOLECULE
MOL
  189   185     1     0     0
SMALL
resp


@<TRIPOS>ATOM
      1 C1         -0.4430    2.3620    6.0480 c3        1 MOL     -0.338963
      2 C2         -0.7150    1.8260    4.6430 c         1 MOL      0.768465
      3 O1          0.2450    1.8440    3.7990 o         1 MOL     -0.638195
      4 H1         -0.7150    1.6060    6.7850 hc        1 MOL      0.087259
      5 H2          0.6160    2.6000    6.1480 hc        1 MOL      0.087259
      6 H3         -1.0350    3.2620    6.2150 hc        1 MOL      0.087259
      7 N1         -1.9550    1.4500    4.3190 n         1 MOL     -0.651808
      8 C3         -2.2810    1.2620    2.9460 c3        1 MOL      0.110530
      9 C4         -2.4080    2.6650    2.3100 c         1 MOL      0.462504
     10 O2         -3.4430    3.3490    2.4520 o         1 MOL     -0.564031
     11 C5         -3.5760    0.4550    2.8210 c3        1 MOL     -0.046012
     12 C6         -3.9540    0.1920    1.3680 c         1 MOL      0.653509
     13 O3         -4.8940   -0.6110    1.1060 o         1 MOL     -0.635020
     14 O4         -3.2980    0.7410    0.4300 o         1 MOL     -0.635020
     15 H4         -2.7190    1.6210    4.9540 hn        1 MOL      0.352493
     16 H5         -1.4310    0.7720    2.4700 h1        1 MOL      0.048706
     17 H6         -4.3910    0.9700    3.3480 hc        1 MOL      0.026901
     18 H7         -3.4540   -0.4730    3.3690 hc        1 MOL      0.026901
     19 N2         -1.3730    3.2340    1.6780 n         1 MOL     -0.170899
     20 C7         -1.1510    4.6370    1.4020 c3        1 MOL     -0.124530
     21 C8         -2.0460    5.1740    0.1920 c         1 MOL      0.580601
     22 O5         -2.0750    6.3630   -0.0300 o         1 MOL     -0.573403
     23 C9          0.3590    4.8550    1.2080 c3        1 MOL     -0.176253
     24 C10         0.7050    6.3370    1.5030 c3        1 MOL      0.085063
     25 C11         2.0240    6.7960    0.9150 c3        1 MOL     -0.003107
     26 C12         2.5960    8.1360    1.4560 c3        1 MOL     -0.089792
     27 N3          1.6630    9.2360    1.1760 n4        1 MOL     -0.290269
     28 H8         -0.5890    2.5970    1.5950 hn        1 MOL      0.245839
     29 H9         -1.3620    5.1660    2.3260 h1        1 MOL      0.091135
     30 H10         0.7610    4.5910    0.2330 hc        1 MOL      0.090933
     31 H11         0.8350    4.1970    1.9380 hc        1 MOL      0.090933
     32 H12         0.8060    6.4920    2.5780 hc        1 MOL     -0.007404
     33 H13        -0.1780    6.9300    1.2660 hc        1 MOL     -0.007404
     34 H14         1.8830    6.8870   -0.1610 hc        1 MOL      0.036516
     35 H15         2.7960    6.0480    1.0940 hc        1 MOL      0.036516
     36 H16         3.5030    8.3280    0.8760 hx        1 MOL      0.112045
     37 H17         2.7740    8.1170    2.5300 hx        1 MOL      0.112045
     38 H18         1.3970    9.2640    0.1970 hn        1 MOL      0.312477
     39 H19         0.8610    9.0930    1.7710 hn        1 MOL      0.312477
     40 H20         1.9750   10.1810    1.3590 hn        1 MOL      0.312477
     41 N4         -2.7890    4.2770   -0.5290 n         1 MOL     -0.333555
     42 C13        -3.8150    4.7180   -1.4750 c3        1 MOL      0.003941
     43 C14        -5.1260    4.0200   -1.2640 c         1 MOL      0.448879
     44 O6         -6.1230    4.5010   -1.8110 o         1 MOL     -0.538643
     45 C15        -3.2860    4.4120   -2.8820 c3        1 MOL     -0.118560
     46 C16        -2.6490    3.0580   -3.0410 c         1 MOL      0.744071
     47 O7         -2.7710    2.0890   -2.2010 o         1 MOL     -0.690338
     48 O8         -1.8770    2.9730   -4.0040 o         1 MOL     -0.690338
     49 H21        -2.7070    3.3120   -0.2330 hn        1 MOL      0.161525
     50 H22        -4.0000    5.7660   -1.2770 h1        1 MOL      0.085551
     51 H23        -2.5950    5.2070   -3.1540 hc        1 MOL      0.039556
     52 H24        -4.1250    4.6000   -3.5530 hc        1 MOL      0.039556
     53 N5         -5.1820    2.9690   -0.4230 n         1 MOL      0.091700
     54 C17        -6.4250    2.4090   -0.0350 c3        1 MOL     -0.334131
     55 C18        -6.9730    1.4780   -1.0750 c         1 MOL      0.634084
     56 O9         -7.7140    1.8290   -2.0160 o         1 MOL     -0.549801
     57 H25        -4.2780    2.6210   -0.1360 hn        1 MOL     -0.046534
     58 H26        -7.0720    3.2750    0.0460 h1        1 MOL      0.113565
     59 H27        -6.3230    1.8910    0.9130 h1        1 MOL      0.113565
     60 N6         -6.5850    0.2220   -1.0380 n         1 MOL     -0.476125
     61 C19        -7.0850   -0.8650   -1.9280 c3        1 MOL     -0.007782
     62 C20        -7.2390   -2.1520   -1.1070 c         1 MOL      0.466460
     63 O10        -7.6420   -3.1550   -1.6730 o         1 MOL     -0.525125
     64 C21        -6.1370   -1.0790   -3.1040 c3        1 MOL     -0.148701
     65 C22        -4.7000   -1.2870   -2.7680 c         1 MOL      0.780657
     66 O11        -3.7590   -0.7970   -3.4950 o         1 MOL     -0.755042
     67 O12        -4.3590   -1.9810   -1.7650 o         1 MOL     -0.755042
     68 H28        -5.7960   -0.0470   -0.4620 hn        1 MOL      0.231610
     69 H29        -8.1230   -0.6950   -2.1990 h1        1 MOL      0.112293
     70 H30        -6.1900   -0.1590   -3.6890 hc        1 MOL      0.065846
     71 H31        -6.5020   -1.8550   -3.7840 hc        1 MOL      0.065846
     72 N7         -6.9620   -2.1830    0.2150 n         1 MOL     -0.293759
     73 C23        -6.9710   -3.3380    1.0880 c3        1 MOL     -0.075950
     74 C24        -5.6400   -4.1650    1.1270 c         1 MOL      0.531608
     75 O13        -5.6300   -5.3560    1.4210 o         1 MOL     -0.594081
     76 H32        -6.5510   -1.3500    0.6260 hn        1 MOL      0.225978
     77 H33        -7.7470   -4.0520    0.8170 h1        1 MOL      0.063947
     78 H34        -7.0880   -2.9130    2.0820 h1        1 MOL      0.063947
     79 N8         -4.5330   -3.6060    0.7140 n         1 MOL     -0.128305
     80 C25        -3.2640   -4.3290    0.6260 c3        1 MOL     -0.398435
     81 C26        -2.0240   -3.3730    0.8250 c         1 MOL      0.671524
     82 O14        -2.0190   -2.1860    0.4350 o         1 MOL     -0.626261
     83 C27        -2.9870   -4.9910   -0.7490 c3        1 MOL      0.789584
     84 C28        -3.5210   -6.4180   -0.5950 c3        1 MOL     -0.535752
     85 O15        -3.5950   -4.4020   -1.7700 oh        1 MOL     -0.745661
     86 H35        -4.5990   -2.5950    0.6640 hn        1 MOL      0.173980
     87 H36        -3.2130   -5.0290    1.4600 h1        1 MOL      0.137934
     88 H37        -1.9200   -5.0230   -0.9450 h1        1 MOL     -0.145760
     89 H38        -3.8720   -3.5010   -1.6050 ho        1 MOL      0.517152
     90 H39        -3.1210   -6.8540    0.3160 hc        1 MOL      0.122163
     91 H40        -4.5910   -6.5600   -0.5830 hc        1 MOL      0.122163
     92 H41        -3.1940   -7.0160   -1.4400 hc        1 MOL      0.122163
     93 N9         -0.9660   -3.9310    1.4340 n         1 MOL     -0.550338
     94 C29         0.2900   -3.2900    1.6380 c3        1 MOL      0.024583
     95 C30         1.4410   -3.9400    0.8060 c         1 MOL      0.561189
     96 O16         1.8320   -5.0810    1.0920 o         1 MOL     -0.542671
     97 C31         0.6380   -3.2890    3.1020 c3        1 MOL     -0.034077
     98 C32        -0.3990   -2.5460    3.9970 c3        1 MOL      0.303367
     99 C33         2.1020   -2.8980    3.3840 c3        1 MOL     -0.164458
    100 C34        -0.1270   -2.8040    5.5010 c3        1 MOL     -0.335806
    101 H42        -1.0260   -4.8660    1.8230 hn        1 MOL      0.306857
    102 H43         0.2580   -2.2460    1.3270 h1        1 MOL      0.088134
    103 H44         0.7060   -4.3160    3.4620 hc        1 MOL      0.008559
    104 H45        -1.3640   -2.9920    3.7560 hc        1 MOL     -0.045301
    105 H46        -0.4600   -1.4820    3.7420 hc        1 MOL     -0.045301
    106 H47         2.2830   -2.9400    4.4670 hc        1 MOL      0.042397
    107 H48         2.8790   -3.4400    2.8490 hc        1 MOL      0.042397
    108 H49         2.0950   -1.8160    3.2290 hc        1 MOL      0.042397
    109 H50         0.7590   -2.2670    5.8090 hc        1 MOL      0.072739
    110 H51        -1.0200   -2.4370    6.0090 hc        1 MOL      0.072739
    111 H52        -0.1200   -3.8860    5.6550 hc        1 MOL      0.072739
    112 N10         1.9140   -3.2730   -0.2950 n         1 MOL     -0.287721
    113 C35         3.1100   -3.6130   -1.0670 c3        1 MOL     -0.048072
    114 C36         4.3950   -3.1970   -0.3730 c         1 MOL      0.196611
    115 O17         4.3490   -2.5620    0.6780 o         1 MOL     -0.204949
    116 C37         2.9670   -3.0020   -2.4890 c3        1 MOL      0.385715
    117 C38         1.8850   -3.6320   -3.3300 c3        1 MOL     -0.410061
    118 O18         2.8850   -1.6180   -2.6100 oh        1 MOL     -0.628662
    119 H53         1.5180   -2.3620   -0.5110 hn        1 MOL      0.128263
    120 H54         3.1130   -4.6830   -1.2900 h1        1 MOL      0.085108
    121 H55         3.8980   -3.2170   -3.0220 h1        1 MOL      0.004327
    122 H56         2.0760   -1.3180   -2.1830 ho        1 MOL      0.406906
    123 H57         2.0130   -4.7090   -3.4650 hc        1 MOL      0.108539
    124 H58         0.9440   -3.3420   -2.8510 hc        1 MOL      0.108539
    125 H59         1.8790   -3.1510   -4.3010 hc        1 MOL      0.108539
    126 N11         5.5790   -3.5710   -0.9050 n         1 MOL     -0.148921
    127 C39         6.8880   -3.2130   -0.2910 c3        1 MOL     -0.305330
    128 C40         7.0790   -1.6610   -0.2300 c         1 MOL      0.522991
    129 O19         7.6530   -1.0300    0.6440 o         1 MOL     -0.527594
    130 C41         8.1950   -3.7060   -0.9980 c3        1 MOL      0.381435
    131 C42         8.5140   -5.1200   -0.6900 c3        1 MOL     -0.388163
    132 O20         7.9480   -3.4790   -2.3630 oh        1 MOL     -0.643696
    133 H60         5.6150   -4.1630   -1.7250 hn        1 MOL      0.232518
    134 H61         6.9040   -3.5420    0.7490 h1        1 MOL      0.177016
    135 H62         9.0440   -3.0940   -0.6790 h1        1 MOL      0.030296
    136 H63         8.7090   -3.6140   -2.9370 ho        1 MOL      0.416664
    137 H64         9.4060   -5.5220   -1.1850 hc        1 MOL      0.108528
    138 H65         8.4900   -5.2870    0.3840 hc        1 MOL      0.108528
    139 H66         7.7300   -5.7970   -1.0320 hc        1 MOL      0.108528
    140 N12         6.4240   -0.9650   -1.1730 n         1 MOL     -0.425836
    141 C43         6.4940    0.5580   -1.2610 c3        1 MOL      0.012753
    142 C44         5.7340    1.1840   -0.0970 c         1 MOL      0.395023
    143 O21         6.0150    2.3650    0.2930 o         1 MOL     -0.547030
    144 C45         5.9290    1.0120   -2.6170 c3        1 MOL     -0.005086
    145 C46         6.4220    2.3760   -3.0510 c3        1 MOL     -0.099261
    146 C47         7.8860    2.7810   -2.9040 c3        1 MOL     -0.059217
    147 C48         8.2450    4.1340   -3.4470 c3        1 MOL      0.148041
    148 N13         9.5620    4.5470   -3.0820 n4        1 MOL     -0.382783
    149 H67         5.9320   -1.5360   -1.8460 hn        1 MOL      0.245023
    150 H68         7.5550    0.7690   -1.2180 h1        1 MOL      0.093798
    151 H69         4.8390    1.0790   -2.6970 hc        1 MOL      0.058145
    152 H70         6.1550    0.2690   -3.3920 hc        1 MOL      0.058145
    153 H71         5.8360    3.1230   -2.5020 hc        1 MOL      0.046121
    154 H72         6.1120    2.4340   -4.0960 hc        1 MOL      0.046121
    155 H73         8.5450    2.0110   -3.3040 hc        1 MOL      0.033539
    156 H74         8.0030    2.8530   -1.8220 hc        1 MOL      0.033539
    157 H75         7.5050    4.8590   -3.0980 hx        1 MOL      0.042469
    158 H76         8.1910    4.0760   -4.5310 hx        1 MOL      0.042469
    159 H77         9.7420    5.4940   -3.3770 hn        1 MOL      0.308905
    160 H78         9.6890    4.4850   -2.0860 hn        1 MOL      0.308905
    161 H79        10.1230    3.8820   -3.6020 hn        1 MOL      0.308905
    162 N14         4.9200    0.3670    0.5330 n         1 MOL     -0.132278
    163 C49         4.0050    0.7790    1.6230 c3        1 MOL     -0.069477
    164 C50         4.3490    0.1180    2.9920 c         1 MOL      0.432269
    165 O22         4.1130    0.8220    3.9910 o         1 MOL     -0.543768
    166 C51         2.5870    0.2700    1.2220 c3        1 MOL      0.065164
    167 C52         2.1440    0.7290   -0.1370 c3        1 MOL      0.023104
    168 C53         0.7260    0.4060   -0.4440 c         1 MOL      0.546230
    169 O23         0.5160   -0.7120   -0.9770 o         1 MOL     -0.661587
    170 O24        -0.2530    1.1740   -0.2930 o         1 MOL     -0.661587
    171 H80         4.7360   -0.4740    0.0080 hn        1 MOL      0.163159
    172 H81         3.9100    1.8600    1.6850 h1        1 MOL      0.098440
    173 H82         1.8010    0.6180    1.8890 hc        1 MOL      0.041064
    174 H83         2.5000   -0.8150    1.1910 hc        1 MOL      0.041064
    175 H84         2.6750    0.3130   -0.9950 hc        1 MOL     -0.030122
    176 H85         2.2800    1.8070   -0.1650 hc        1 MOL     -0.030122
    177 N15         4.9630   -1.0630    3.0030 n         1 MOL     -0.139162
    178 C54         5.5030   -1.7210    4.2310 c3        1 MOL     -0.169311
    179 H86         4.8590   -2.5540    4.5100 h1        1 MOL      0.082192
    180 H87         6.5100   -2.0900    4.0330 h1        1 MOL      0.082192
    181 H88         5.5350   -0.9980    5.0470 h1        1 MOL      0.082192
    182 H89         5.1400   -1.5030    2.1160 hn        1 MOL      0.098872
    183 Ca1        -2.0580   -0.3580   -1.5350 Ca        1 MOL      1.757935
    184 O25        -0.7970    0.3390   -3.8240 oh        1 MOL     -0.808888
    185 H90        -1.0890    1.2090   -4.0840 ho        1 MOL      0.381676
    186 H91        -0.1460    0.0870   -4.4820 ho        1 MOL      0.381676
    187 O26        -1.5430   -2.8420   -2.7180 oh        1 MOL     -0.808888
    188 H92        -2.1950   -3.5340   -2.6510 ho        1 MOL      0.381676
    189 H93        -1.1280   -2.9880   -3.5730 ho        1 MOL      0.381676
@<TRIPOS>BOND
     1    1    2 1   
     2    1    4 1   
     3    1    5 1   
     4    1    6 1   
     5    2    3 2   
     6    2    7 1   
     7    7    8 1   
     8    7   15 1   
     9    8    9 1   
    10    8   11 1   
    11    8   16 1   
    12    9   10 2   
    13    9   19 1   
    14   11   12 1   
    15   11   17 1   
    16   11   18 1   
    17   12   13 1   
    18   12   14 1   
    19   19   20 1   
    20   19   28 1   
    21   20   21 1   
    22   20   23 1   
    23   20   29 1   
    24   21   22 2   
    25   21   41 1   
    26   23   24 1   
    27   23   30 1   
    28   23   31 1   
    29   24   25 1   
    30   24   32 1   
    31   24   33 1   
    32   25   26 1   
    33   25   34 1   
    34   25   35 1   
    35   26   27 1   
    36   26   36 1   
    37   26   37 1   
    38   27   38 1   
    39   27   39 1   
    40   27   40 1   
    41   41   42 1   
    42   41   49 1   
    43   42   43 1   
    44   42   45 1   
    45   42   50 1   
    46   43   44 2   
    47   43   53 1   
    48   45   46 1   
    49   45   51 1   
    50   45   52 1   
    51   46   47 1   
    52   46   48 1   
    53   53   54 1   
    54   53   57 1   
    55   54   55 1   
    56   54   58 1   
    57   54   59 1   
    58   55   56 2   
    59   55   60 1   
    60   60   61 1   
    61   60   68 1   
    62   61   62 1   
    63   61   64 1   
    64   61   69 1   
    65   62   63 2   
    66   62   72 1   
    67   64   65 1   
    68   64   70 1   
    69   64   71 1   
    70   65   66 1   
    71   65   67 1   
    72   72   73 1   
    73   72   76 1   
    74   73   74 1   
    75   73   77 1   
    76   73   78 1   
    77   74   75 2   
    78   74   79 1   
    79   79   80 1   
    80   79   86 1   
    81   80   81 1   
    82   80   83 1   
    83   80   87 1   
    84   81   82 2   
    85   81   93 1   
    86   83   84 1   
    87   83   85 1   
    88   83   88 1   
    89   84   90 1   
    90   84   91 1   
    91   84   92 1   
    92   85   89 1   
    93   93   94 1   
    94   93  101 1   
    95   94   95 1   
    96   94   97 1   
    97   94  102 1   
    98   95   96 2   
    99   95  112 1   
   100   97   98 1   
   101   97   99 1   
   102   97  103 1   
   103   98  100 1   
   104   98  104 1   
   105   98  105 1   
   106   99  106 1   
   107   99  107 1   
   108   99  108 1   
   109  100  109 1   
   110  100  110 1   
   111  100  111 1   
   112  112  113 1   
   113  112  119 1   
   114  113  114 1   
   115  113  116 1   
   116  113  120 1   
   117  114  115 2   
   118  114  126 1   
   119  116  117 1   
   120  116  118 1   
   121  116  121 1   
   122  117  123 1   
   123  117  124 1   
   124  117  125 1   
   125  118  122 1   
   126  126  127 1   
   127  126  133 1   
   128  127  128 1   
   129  127  130 1   
   130  127  134 1   
   131  128  129 2   
   132  128  140 1   
   133  130  131 1   
   134  130  132 1   
   135  130  135 1   
   136  131  137 1   
   137  131  138 1   
   138  131  139 1   
   139  132  136 1   
   140  140  141 1   
   141  140  149 1   
   142  141  142 1   
   143  141  144 1   
   144  141  150 1   
   145  142  143 2   
   146  142  162 1   
   147  144  145 1   
   148  144  151 1   
   149  144  152 1   
   150  145  146 1   
   151  145  153 1   
   152  145  154 1   
   153  146  147 1   
   154  146  155 1   
   155  146  156 1   
   156  147  148 1   
   157  147  157 1   
   158  147  158 1   
   159  148  159 1   
   160  148  160 1   
   161  148  161 1   
   162  162  163 1   
   163  162  171 1   
   164  163  164 1   
   165  163  166 1   
   166  163  172 1   
   167  164  165 2   
   168  164  177 1   
   169  166  167 1   
   170  166  173 1   
   171  166  174 1   
   172  167  168 1   
   173  167  175 1   
   174  167  176 1   
   175  168  169 1   
   176  168  170 1   
   177  177  178 1   
   178  177  182 1   
   179  178  179 1   
   180  178  180 1   
   181  178  181 1   
   182  184  185 1   
   183  184  186 1   
   184  187  188 1   
   185  187  189 1   
@<TRIPOS>SUBSTRUCTURE
     1 MOL         1 TEMP              0 ****  ****    0 ROOT
