@<TRIPOS>MOLECULE
MOL
  183   181     1     0     0
SMALL
resp


@<TRIPOS>ATOM
      1 C1          0.7790   -2.0630    6.3350 c3        1 MOL     -0.276008
      2 C2          1.0290   -2.1210    4.7600 c         1 MOL      0.694709
      3 O1          0.2150   -2.6800    3.9820 o         1 MOL     -0.583592
      4 H1          1.4400   -1.3190    6.7800 hc        1 MOL      0.064936
      5 H2         -0.2580   -1.7900    6.5300 hc        1 MOL      0.064936
      6 H3          0.9860   -3.0400    6.7720 hc        1 MOL      0.064936
      7 N1          2.1930   -1.5840    4.3430 n         1 MOL     -0.645294
      8 C3          2.7510   -1.7930    2.9840 c3        1 MOL      0.255653
      9 C4          3.0930   -3.3040    2.6710 c         1 MOL      0.491549
     10 O2          3.8310   -3.9570    3.4280 o         1 MOL     -0.588805
     11 C5          4.0380   -0.9150    2.9210 c3        1 MOL     -0.214934
     12 C6          4.5990   -0.7310    1.5220 c         1 MOL      0.661747
     13 O3          3.9950   -1.2400    0.6440 o         1 MOL     -0.657273
     14 O4          5.7340   -0.1780    1.3750 o         1 MOL     -0.657273
     15 H4          2.8310   -1.2560    5.0550 hn        1 MOL      0.324702
     16 H5          2.0350   -1.3530    2.2920 h1        1 MOL      0.022007
     17 H6          4.7690   -1.3940    3.5850 hc        1 MOL      0.037471
     18 H7          3.8460    0.0090    3.4500 hc        1 MOL      0.037471
     19 N2          2.6140   -3.8060    1.5040 n         1 MOL     -0.022506
     20 C7          2.6910   -5.1750    1.1130 c3        1 MOL     -0.269232
     21 C8          3.5550   -5.3350   -0.0750 c         1 MOL      0.633401
     22 O5          3.9270   -6.4840   -0.3980 o         1 MOL     -0.598974
     23 C9          1.3280   -5.7600    0.9050 c3        1 MOL      0.341410
     24 C10         0.4760   -5.4120   -0.3370 c3        1 MOL     -0.045763
     25 C11         0.4870   -5.7500    2.1980 c3        1 MOL     -0.175483
     26 C12        -0.7470   -6.3470   -0.4590 c3        1 MOL     -0.330639
     27 H8          1.9150   -3.2850    1.0050 hn        1 MOL      0.099761
     28 H9          3.1730   -5.7720    1.8860 h1        1 MOL      0.106719
     29 H10         1.6250   -6.8120    0.8060 hc        1 MOL     -0.072839
     30 H11         1.1010   -5.5790   -1.2170 hc        1 MOL      0.043811
     31 H12         0.1080   -4.3850   -0.3260 hc        1 MOL      0.043811
     32 H13         0.0890   -4.7340    2.2120 hc        1 MOL      0.025978
     33 H14        -0.3260   -6.4640    2.1000 hc        1 MOL      0.025978
     34 H15         1.0550   -5.9610    3.0970 hc        1 MOL      0.025978
     35 H16        -1.3370   -6.0790   -1.3430 hc        1 MOL      0.084322
     36 H17        -0.4570   -7.3940   -0.5140 hc        1 MOL      0.084322
     37 H18        -1.3630   -6.1240    0.4150 hc        1 MOL      0.084322
     38 N3          4.0660   -4.2430   -0.7100 n         1 MOL     -0.434405
     39 C13         4.7780   -4.2270   -1.9500 c3        1 MOL      0.114034
     40 C14         6.1650   -3.4940   -1.8400 c         1 MOL      0.434214
     41 O6          7.1150   -3.9650   -2.4630 o         1 MOL     -0.568095
     42 C15         3.9640   -3.7000   -3.1950 c3        1 MOL     -0.308385
     43 C16         3.4190   -2.3030   -2.9320 c         1 MOL      0.900919
     44 O7          4.1610   -1.3730   -2.7080 o         1 MOL     -0.799309
     45 O8          2.2120   -2.0610   -2.9910 o         1 MOL     -0.799309
     46 H19         3.9090   -3.3790   -0.2020 hn        1 MOL      0.108399
     47 H20         4.9720   -5.2780   -2.1320 h1        1 MOL      0.068638
     48 H21         3.1170   -4.3750   -3.2990 hc        1 MOL      0.074240
     49 H22         4.5820   -3.7450   -4.0900 hc        1 MOL      0.074240
     50 N4          6.3010   -2.4590   -1.0120 n         1 MOL     -0.188282
     51 C17         7.5240   -1.8640   -0.5690 c3        1 MOL     -0.183877
     52 C18         7.9000   -0.4570   -0.9560 c         1 MOL      0.606903
     53 O9          9.0260    0.0220   -0.7000 o         1 MOL     -0.618956
     54 H23         5.4920   -2.0110   -0.5900 hn        1 MOL      0.302847
     55 H24         8.3510   -2.4230   -1.0150 h1        1 MOL      0.080257
     56 H25         7.5750   -1.9480    0.5250 h1        1 MOL      0.080257
     57 N5          6.9310    0.2640   -1.5330 n         1 MOL     -0.324348
     58 C19         7.0410    1.6570   -1.9170 c3        1 MOL     -0.054963
     59 C20         7.0280    2.7180   -0.7990 c         1 MOL      0.418598
     60 O10         7.2830    3.9410   -1.0870 o         1 MOL     -0.597733
     61 C21         5.9510    1.9170   -2.9630 c3        1 MOL     -0.217845
     62 C22         4.5650    1.6450   -2.3740 c         1 MOL      0.839558
     63 O11         3.6090    1.5540   -3.1240 o         1 MOL     -0.782639
     64 O12         4.3880    1.4970   -1.1810 o         1 MOL     -0.782639
     65 H26         6.0260   -0.1520   -1.7000 hn        1 MOL      0.202005
     66 H27         7.9890    1.8700   -2.4060 h1        1 MOL      0.089829
     67 H28         6.1490    1.3530   -3.8740 hc        1 MOL      0.072352
     68 H29         5.9770    2.9330   -3.3570 hc        1 MOL      0.072352
     69 N6          6.6950    2.3390    0.3870 n         1 MOL     -0.076335
     70 C23         6.5270    3.3070    1.4970 c3        1 MOL     -0.276677
     71 C24         5.3880    4.3280    1.4570 c         1 MOL      0.604386
     72 O13         5.3510    5.3230    2.2170 o         1 MOL     -0.604228
     73 H30         6.4070    1.3740    0.5050 hn        1 MOL      0.189039
     74 H31         7.5070    3.7700    1.5920 h1        1 MOL      0.102993
     75 H32         6.3170    2.6470    2.3330 h1        1 MOL      0.102993
     76 N7          4.4290    3.9620    0.6640 n         1 MOL     -0.344200
     77 C25         3.0090    4.4000    0.7470 c3        1 MOL     -0.009684
     78 C26         1.8710    3.3190    0.8680 c         1 MOL      0.588735
     79 O14         1.9010    2.3290    0.1540 o         1 MOL     -0.614257
     80 C27         2.7070    5.3900   -0.4480 c3        1 MOL      0.040504
     81 C28         2.9160    6.8930   -0.1510 c3        1 MOL     -0.238242
     82 C29         2.7290    7.7710   -1.3950 c         1 MOL      0.607635
     83 N8          3.7370    7.8700   -2.2830 n         1 MOL     -0.779476
     84 O15         1.7050    8.4980   -1.6150 o         1 MOL     -0.571141
     85 H33         4.5970    3.1060    0.1610 hn        1 MOL      0.284870
     86 H34         2.9940    4.9900    1.6720 h1        1 MOL      0.047752
     87 H35         1.6620    5.2120   -0.7070 hc        1 MOL      0.029286
     88 H36         3.3260    5.1550   -1.3090 hc        1 MOL      0.029286
     89 H37         3.9300    7.0050    0.2330 hc        1 MOL      0.081124
     90 H38         2.2640    7.2440    0.6400 hc        1 MOL      0.081124
     91 H39         4.6010    7.3770   -2.1470 hn        1 MOL      0.364579
     92 H40         3.6080    8.4720   -3.0890 hn        1 MOL      0.364579
     93 N9          0.8890    3.5770    1.7820 n         1 MOL     -0.455146
     94 C30        -0.1460    2.5810    2.0100 c3        1 MOL      0.030699
     95 C31        -1.2660    3.0660    1.0520 c         1 MOL      0.313332
     96 O16        -1.7760    4.2460    1.1240 o         1 MOL     -0.578331
     97 C32        -0.6190    2.3750    3.4360 c3        1 MOL      0.242964
     98 C33        -1.3040    1.0540    3.6870 c3        1 MOL     -0.281276
     99 C34         0.5580    2.5650    4.2990 c3        1 MOL     -0.281276
    100 H41         0.8350    4.3760    2.4100 hn        1 MOL      0.301754
    101 H42         0.2630    1.6660    1.5840 h1        1 MOL      0.136483
    102 H43        -1.2950    3.1670    3.7590 hc        1 MOL     -0.017672
    103 H44        -1.5730    1.0180    4.7460 hc        1 MOL      0.057278
    104 H45        -2.1300    0.8450    3.0050 hc        1 MOL      0.057278
    105 H46        -0.4820    0.3370    3.6080 hc        1 MOL      0.057278
    106 H47         1.0850    3.5200    4.2470 hc        1 MOL      0.057278
    107 H48         0.2180    2.4390    5.3290 hc        1 MOL      0.057278
    108 H49         1.3260    1.8260    4.0920 hc        1 MOL      0.057278
    109 N10        -1.6800    2.2140    0.1080 n         1 MOL      0.029562
    110 C35        -2.8090    2.6120   -0.7380 c3        1 MOL      0.040649
    111 C36        -4.1590    2.1290   -0.1560 c         1 MOL      0.345659
    112 O17        -4.1230    1.3580    0.8670 o         1 MOL     -0.347607
    113 C37        -2.5390    2.3270   -2.2230 c3        1 MOL     -0.132397
    114 C38        -3.0480    0.9900   -2.6010 c         1 MOL      0.534108
    115 N11        -2.4190   -0.1180   -2.2310 n         1 MOL     -0.555398
    116 O18        -4.0630    0.9400   -3.2730 o         1 MOL     -0.584060
    117 H50        -1.2030    1.3240    0.0130 hn        1 MOL      0.067116
    118 H51        -2.9240    3.6930   -0.7450 h1        1 MOL      0.076501
    119 H52        -1.4640    2.3200   -2.3680 hc        1 MOL      0.038864
    120 H53        -3.0510    3.0710   -2.8440 hc        1 MOL      0.038864
    121 H54        -1.5070   -0.0090   -1.8080 hn        1 MOL      0.344098
    122 H55        -2.7750   -0.9200   -2.7280 hn        1 MOL      0.344098
    123 N12        -5.2640    2.6030   -0.6030 n         1 MOL     -0.400120
    124 C39        -6.5410    2.1650   -0.1020 c3        1 MOL      0.091710
    125 C40        -6.6720    0.6490   -0.1510 c         1 MOL      0.769028
    126 O19        -7.1040    0.0510    0.8720 o         1 MOL     -0.573172
    127 C41        -7.6250    2.6880   -1.0160 c3        1 MOL     -0.142960
    128 C42        -9.0280    2.3080   -0.5590 ca        1 MOL      0.129651
    129 C43        -9.6420    3.0030    0.4860 ca        1 MOL     -0.308079
    130 C44        -9.6820    1.2630   -1.2590 ca        1 MOL     -0.308079
    131 C45       -10.9230    2.5930    0.8720 ca        1 MOL     -0.073134
    132 C46       -10.9830    0.8780   -0.9260 ca        1 MOL     -0.073134
    133 C47       -11.6180    1.6060    0.1520 ca        1 MOL      0.153336
    134 O20       -12.8360    1.2410    0.5910 oh        1 MOL     -0.489220
    135 H56        -5.2380    3.2710   -1.3610 hn        1 MOL      0.294276
    136 H57        -6.7900    2.5370    0.8960 h1        1 MOL      0.065240
    137 H58        -7.3580    2.3040   -1.9960 hc        1 MOL      0.054762
    138 H59        -7.5780    3.7610   -1.1910 hc        1 MOL      0.054762
    139 H60        -9.1800    3.8330    1.0130 ha        1 MOL      0.165641
    140 H61        -9.1680    0.7070   -2.0380 ha        1 MOL      0.165641
    141 H62       -11.4780    3.0930    1.6470 ha        1 MOL      0.108765
    142 H63       -11.5060    0.0210   -1.3260 ha        1 MOL      0.108765
    143 H64       -13.2740    0.6720   -0.0500 ho        1 MOL      0.380561
    144 N13        -6.2240   -0.0710   -1.2050 n         1 MOL     -0.555088
    145 C48        -6.2720   -1.6020   -1.2270 c3        1 MOL      0.089989
    146 C49        -5.3550   -2.2460   -0.1350 c         1 MOL      0.400377
    147 O21        -5.6700   -3.3080    0.3220 o         1 MOL     -0.503272
    148 C50        -5.9340   -1.9750   -2.6620 c3        1 MOL      0.007194
    149 C51        -6.2030   -3.4610   -2.9180 c3        1 MOL     -0.351464
    150 C52        -5.9360   -3.7750   -4.3740 c         1 MOL      0.798658
    151 O22        -6.9010   -3.8180   -5.1970 o         1 MOL     -0.770621
    152 O23        -4.8050   -4.0420   -4.7840 o         1 MOL     -0.770621
    153 H65        -5.9170    0.4230   -2.0270 hn        1 MOL      0.295222
    154 H66        -7.2110   -2.0630   -0.9220 h1        1 MOL      0.086374
    155 H67        -4.8850   -1.7260   -2.7930 hc        1 MOL      0.041875
    156 H68        -6.5170   -1.4300   -3.4170 hc        1 MOL      0.041875
    157 H69        -7.2340   -3.7240   -2.7250 hc        1 MOL      0.063208
    158 H70        -5.5730   -4.1620   -2.3730 hc        1 MOL      0.063208
    159 N14        -4.3320   -1.4760    0.3190 n         1 MOL     -0.009635
    160 C53        -3.5750   -1.8570    1.5170 c3        1 MOL     -0.065971
    161 C54        -4.2340   -1.4690    2.7720 c         1 MOL      0.469415
    162 O24        -4.1120   -2.2120    3.7890 o         1 MOL     -0.590143
    163 C55        -2.1330   -1.3770    1.4700 c3        1 MOL      0.078405
    164 C56        -1.2650   -2.1350    0.5210 c3        1 MOL     -0.326467
    165 C57        -0.0310   -1.4080    0.1210 c         1 MOL      0.824642
    166 O25         1.0840   -1.8700    0.1560 o         1 MOL     -0.783263
    167 O26        -0.0580   -0.2670   -0.3160 o         1 MOL     -0.783263
    168 H71        -4.2950   -0.5300   -0.0290 hn        1 MOL     -0.311872
    169 H72        -3.6150   -2.9370    1.6700 h1        1 MOL      0.093845
    170 H73        -1.7350   -1.3950    2.4850 hc        1 MOL      0.060052
    171 H74        -2.2180   -0.3690    1.0650 hc        1 MOL      0.060052
    172 H75        -1.7260   -2.3050   -0.4480 hc        1 MOL      0.124557
    173 H76        -1.0510   -3.1320    0.8980 hc        1 MOL      0.124557
    174 N15        -4.9960   -0.3660    2.8030 n         1 MOL     -0.024947
    175 C58        -5.6700    0.1520    3.9890 c3        1 MOL     -0.250059
    176 H77        -4.9520    0.6890    4.6090 h1        1 MOL      0.082223
    177 H78        -6.4680    0.8310    3.6860 h1        1 MOL      0.082223
    178 H79        -6.0940   -0.6750    4.5580 h1        1 MOL      0.082223
    179 H80        -5.0450    0.1860    1.9460 hn        1 MOL      0.093924
    180 Ca1         2.4720   -0.0830   -1.1660 Ca        1 MOL      1.779668
    181 O27         0.8130    0.9040   -3.1580 oh        1 MOL     -0.762940
    182 H81         1.2790    1.6740   -3.5030 ho        1 MOL      0.390775
    183 H82         0.2080    0.6630   -3.8600 ho        1 MOL      0.390775
@<TRIPOS>BOND
     1    1    2 1   
     2    1    4 1   
     3    1    5 1   
     4    1    6 1   
     5    2    3 2   
     6    2    7 1   
     7    7    8 1   
     8    7   15 1   
     9    8    9 1   
    10    8   11 1   
    11    8   16 1   
    12    9   10 2   
    13    9   19 1   
    14   11   12 1   
    15   11   17 1   
    16   11   18 1   
    17   12   13 1   
    18   12   14 1   
    19   19   20 1   
    20   19   27 1   
    21   20   21 1   
    22   20   23 1   
    23   20   28 1   
    24   21   22 2   
    25   21   38 1   
    26   23   24 1   
    27   23   25 1   
    28   23   29 1   
    29   24   26 1   
    30   24   30 1   
    31   24   31 1   
    32   25   32 1   
    33   25   33 1   
    34   25   34 1   
    35   26   35 1   
    36   26   36 1   
    37   26   37 1   
    38   38   39 1   
    39   38   46 1   
    40   39   40 1   
    41   39   42 1   
    42   39   47 1   
    43   40   41 2   
    44   40   50 1   
    45   42   43 1   
    46   42   48 1   
    47   42   49 1   
    48   43   44 1   
    49   43   45 1   
    50   50   51 1   
    51   50   54 1   
    52   51   52 1   
    53   51   55 1   
    54   51   56 1   
    55   52   53 2   
    56   52   57 1   
    57   57   58 1   
    58   57   65 1   
    59   58   59 1   
    60   58   61 1   
    61   58   66 1   
    62   59   60 2   
    63   59   69 1   
    64   61   62 1   
    65   61   67 1   
    66   61   68 1   
    67   62   63 1   
    68   62   64 1   
    69   69   70 1   
    70   69   73 1   
    71   70   71 1   
    72   70   74 1   
    73   70   75 1   
    74   71   72 2   
    75   71   76 1   
    76   76   77 1   
    77   76   85 1   
    78   77   78 1   
    79   77   80 1   
    80   77   86 1   
    81   78   79 2   
    82   78   93 1   
    83   80   81 1   
    84   80   87 1   
    85   80   88 1   
    86   81   82 1   
    87   81   89 1   
    88   81   90 1   
    89   82   83 1   
    90   82   84 2   
    91   83   91 1   
    92   83   92 1   
    93   93   94 1   
    94   93  100 1   
    95   94   95 1   
    96   94   97 1   
    97   94  101 1   
    98   95   96 2   
    99   95  109 1   
   100   97   98 1   
   101   97   99 1   
   102   97  102 1   
   103   98  103 1   
   104   98  104 1   
   105   98  105 1   
   106   99  106 1   
   107   99  107 1   
   108   99  108 1   
   109  109  110 1   
   110  109  117 1   
   111  110  111 1   
   112  110  113 1   
   113  110  118 1   
   114  111  112 2   
   115  111  123 1   
   116  113  114 1   
   117  113  119 1   
   118  113  120 1   
   119  114  115 1   
   120  114  116 2   
   121  115  121 1   
   122  115  122 1   
   123  123  124 1   
   124  123  135 1   
   125  124  125 1   
   126  124  127 1   
   127  124  136 1   
   128  125  126 2   
   129  125  144 1   
   130  127  128 1   
   131  127  137 1   
   132  127  138 1   
   133  128  129 ar  
   134  128  130 ar  
   135  129  131 ar  
   136  129  139 1   
   137  130  132 ar  
   138  130  140 1   
   139  131  133 ar  
   140  131  141 1   
   141  132  133 ar  
   142  132  142 1   
   143  133  134 1   
   144  134  143 1   
   145  144  145 1   
   146  144  153 1   
   147  145  146 1   
   148  145  148 1   
   149  145  154 1   
   150  146  147 2   
   151  146  159 1   
   152  148  149 1   
   153  148  155 1   
   154  148  156 1   
   155  149  150 1   
   156  149  157 1   
   157  149  158 1   
   158  150  151 1   
   159  150  152 1   
   160  159  160 1   
   161  159  168 1   
   162  160  161 1   
   163  160  163 1   
   164  160  169 1   
   165  161  162 2   
   166  161  174 1   
   167  163  164 1   
   168  163  170 1   
   169  163  171 1   
   170  164  165 1   
   171  164  172 1   
   172  164  173 1   
   173  165  166 1   
   174  165  167 1   
   175  174  175 1   
   176  174  179 1   
   177  175  176 1   
   178  175  177 1   
   179  175  178 1   
   180  181  182 1   
   181  181  183 1   
@<TRIPOS>SUBSTRUCTURE
     1 MOL         1 TEMP              0 ****  ****    0 ROOT
