@<TRIPOS>MOLECULE
MOL
  186   183     1     0     0
SMALL
resp


@<TRIPOS>ATOM
      1 C1          0.6060   -1.3490    6.3120 c3        1 MOL     -0.339351
      2 C2          1.1010   -1.4430    4.8250 c         1 MOL      0.821479
      3 O1          0.3000   -1.9750    4.1140 o         1 MOL     -0.601028
      4 H1         -0.2540   -2.0030    6.4500 hc        1 MOL      0.071315
      5 H2          1.4080   -1.6570    6.9830 hc        1 MOL      0.071315
      6 H3          0.3200   -0.3210    6.5360 hc        1 MOL      0.071315
      7 N1          2.3190   -1.0470    4.4300 n         1 MOL     -0.768200
      8 C3          2.8220   -1.2670    3.0860 c3        1 MOL      0.256695
      9 C4          3.0900   -2.8020    2.9080 c         1 MOL      0.592222
     10 O2          3.6040   -3.4410    3.7730 o         1 MOL     -0.585888
     11 C5          4.1410   -0.4870    2.9410 c3        1 MOL     -0.176978
     12 C6          4.8230   -0.5930    1.6350 c         1 MOL      0.913877
     13 O3          6.0800   -0.5690    1.5240 o         1 MOL     -0.785710
     14 O4          4.0710   -0.6940    0.6450 o         1 MOL     -0.785710
     15 H4          2.9900   -0.6960    5.0920 hn        1 MOL      0.340336
     16 H5          2.0820   -0.8390    2.3980 h1        1 MOL      0.086781
     17 H6          4.8500   -0.8610    3.6870 hc        1 MOL     -0.000935
     18 H7          3.9060    0.5610    3.0940 hc        1 MOL     -0.000935
     19 N2          2.6850   -3.3880    1.7900 n         1 MOL     -0.480689
     20 C7          2.9110   -4.8270    1.4600 c3        1 MOL      0.136568
     21 C8          3.7970   -5.1050    0.2400 c         1 MOL      0.546213
     22 O5          4.8310   -5.7900    0.2610 o         1 MOL     -0.613879
     23 C9          1.5570   -5.4090    1.1600 c3        1 MOL      0.110161
     24 C10         0.5370   -5.3210    2.3730 c3        1 MOL      0.127833
     25 C11         1.7120   -6.8850    0.8490 c3        1 MOL     -0.575924
     26 C12        -0.8920   -5.9110    2.1550 c3        1 MOL     -0.277108
     27 H8          2.0950   -2.8400    1.1810 hn        1 MOL      0.202635
     28 H9          3.3640   -5.4220    2.2550 h1        1 MOL      0.034934
     29 H10         1.1540   -4.8220    0.3280 hc        1 MOL      0.031859
     30 H11         0.3880   -4.2630    2.5880 hc        1 MOL      0.004345
     31 H12         0.9510   -5.7380    3.2990 hc        1 MOL      0.004345
     32 H13         2.1990   -7.4500    1.6510 hc        1 MOL      0.127929
     33 H14         0.7190   -7.2780    0.6390 hc        1 MOL      0.127929
     34 H15         2.4260   -7.1210    0.0520 hc        1 MOL      0.127929
     35 H16        -1.3180   -5.6880    1.1750 hc        1 MOL      0.066537
     36 H17        -0.8810   -6.9960    2.1730 hc        1 MOL      0.066537
     37 H18        -1.5360   -5.4930    2.9230 hc        1 MOL      0.066537
     38 N3          3.5480   -4.4800   -0.9630 n         1 MOL     -0.245075
     39 C13         4.2350   -4.6340   -2.2480 c3        1 MOL     -0.041594
     40 C14         5.4680   -3.6940   -2.2670 c         1 MOL      0.511816
     41 O6          6.1250   -3.6250   -3.3060 o         1 MOL     -0.536482
     42 C15         3.3420   -4.3230   -3.4870 c3        1 MOL     -0.245647
     43 C16         2.5260   -2.9890   -3.3020 c         1 MOL      0.860378
     44 O7          1.8640   -2.5480   -4.2310 o         1 MOL     -0.718879
     45 O8          2.7240   -2.1690   -2.3440 o         1 MOL     -0.718879
     46 H19         2.8530   -3.7570   -0.9170 hn        1 MOL      0.071515
     47 H20         4.5390   -5.6650   -2.3940 h1        1 MOL      0.089535
     48 H21         2.5720   -5.0970   -3.5930 hc        1 MOL      0.065205
     49 H22         3.9520   -4.1500   -4.3700 hc        1 MOL      0.065205
     50 N4          5.8260   -3.0210   -1.1630 n         1 MOL     -0.181747
     51 C17         7.1360   -2.4730   -1.1090 c3        1 MOL     -0.191159
     52 C18         7.2470   -1.1250   -1.8150 c         1 MOL      0.661408
     53 O9          7.5500   -1.1470   -3.0080 o         1 MOL     -0.530637
     54 H23         5.3260   -3.1880   -0.3080 hn        1 MOL      0.229257
     55 H24         7.8680   -3.1300   -1.5540 h1        1 MOL      0.069942
     56 H25         7.4910   -2.3960   -0.0800 h1        1 MOL      0.069942
     57 N5          7.1760    0.0230   -1.1600 n         1 MOL     -0.533888
     58 C19         7.4570    1.3570   -1.6620 c3        1 MOL      0.028545
     59 C20         7.3850    2.4010   -0.5540 c         1 MOL      0.474877
     60 O10         7.9160    3.5110   -0.8480 o         1 MOL     -0.573334
     61 C21         6.3950    1.7050   -2.6880 c3        1 MOL     -0.226600
     62 C22         4.9970    1.3100   -2.3110 c         1 MOL      0.511111
     63 O11         4.2940    0.6560   -3.1380 o         1 MOL     -0.591366
     64 O12         4.5700    1.6340   -1.1850 o         1 MOL     -0.591366
     65 H26         7.0370   -0.0790   -0.1580 hn        1 MOL      0.249322
     66 H27         8.4140    1.3130   -2.1770 h1        1 MOL      0.077275
     67 H28         6.5410    1.1510   -3.6190 hc        1 MOL      0.075179
     68 H29         6.4220    2.7840   -2.8790 hc        1 MOL      0.075179
     69 N6          6.8530    2.0460    0.6130 n         1 MOL     -0.215717
     70 C23         6.8740    2.9550    1.7340 c3        1 MOL     -0.086544
     71 C24         5.7070    3.8760    1.7010 c         1 MOL      0.597822
     72 O13         5.8160    4.9790    2.2350 o         1 MOL     -0.601709
     73 H30         6.2880    1.2140    0.7210 hn        1 MOL      0.276194
     74 H31         7.7670    3.5860    1.7180 h1        1 MOL      0.054771
     75 H32         6.7760    2.4340    2.6790 h1        1 MOL      0.054771
     76 N7          4.5800    3.3980    1.1260 n         1 MOL     -0.380885
     77 C25         3.3110    4.1050    1.1280 c3        1 MOL      0.017678
     78 C26         2.2340    3.1480    1.0770 c         1 MOL      0.525892
     79 O14         2.3410    1.9550    0.6710 o         1 MOL     -0.635230
     80 C27         3.2320    4.9730   -0.1940 c3        1 MOL     -0.117338
     81 C28         3.8440    6.4060   -0.0800 c3        1 MOL     -0.267691
     82 C29         3.5170    7.3430   -1.2680 c         1 MOL      0.659790
     83 N8          4.4010    7.4480   -2.2240 n         1 MOL     -0.803358
     84 O15         2.4650    7.9190   -1.3640 o         1 MOL     -0.575814
     85 H33         4.6060    2.5500    0.5810 hn        1 MOL      0.229137
     86 H34         3.1780    4.7090    2.0150 h1        1 MOL      0.072671
     87 H35         2.1710    4.9740   -0.4770 hc        1 MOL      0.095082
     88 H36         3.8280    4.4720   -0.9480 hc        1 MOL      0.095082
     89 H37         4.9190    6.3890    0.0820 hc        1 MOL      0.092176
     90 H38         3.4640    6.8290    0.8540 hc        1 MOL      0.092176
     91 H39         5.2520    6.9160   -2.2370 hn        1 MOL      0.363380
     92 H40         4.1910    8.0780   -2.9820 hn        1 MOL      0.363380
     93 N9          1.0850    3.5350    1.6000 n         1 MOL     -0.286622
     94 C30        -0.1870    2.7890    1.6800 c3        1 MOL     -0.029832
     95 C31        -1.2310    3.2920    0.6490 c         1 MOL      0.377372
     96 O16        -1.7680    4.3620    0.8790 o         1 MOL     -0.533962
     97 C32        -0.7290    2.8960    3.1540 c3        1 MOL      0.252929
     98 C33        -2.1520    2.4570    3.4620 c3        1 MOL     -0.229473
     99 C34         0.3710    2.2750    4.0760 c3        1 MOL     -0.229473
    100 H41         1.1500    4.4830    1.9680 hn        1 MOL      0.222247
    101 H42        -0.0490    1.7340    1.4740 h1        1 MOL      0.126342
    102 H43        -0.7290    3.9380    3.4540 hc        1 MOL     -0.039485
    103 H44        -2.2200    1.5300    2.8880 hc        1 MOL      0.044338
    104 H45        -2.3170    2.1680    4.5010 hc        1 MOL      0.044338
    105 H46        -2.9120    3.1220    3.0720 hc        1 MOL      0.044338
    106 H47         1.2950    2.8380    3.9630 hc        1 MOL      0.044338
    107 H48         0.1760    2.3890    5.1470 hc        1 MOL      0.044338
    108 H49         0.4370    1.2260    3.7880 hc        1 MOL      0.044338
    109 N10        -1.5440    2.5100   -0.4150 n         1 MOL     -0.221248
    110 C35        -2.7190    2.7820   -1.2000 c3        1 MOL      0.080114
    111 C36        -4.0170    2.3750   -0.4690 c         1 MOL      0.293183
    112 O17        -4.0880    1.6890    0.5880 o         1 MOL     -0.241543
    113 C37        -2.5880    2.3580   -2.6850 c3        1 MOL     -0.475253
    114 C38        -2.8520    0.8670   -2.8230 c         1 MOL      0.649973
    115 N11        -2.0210   -0.0690   -2.4040 n         1 MOL     -0.728236
    116 O18        -3.9010    0.4870   -3.3710 o         1 MOL     -0.583832
    117 H50        -1.0260    1.6490   -0.5320 hn        1 MOL      0.203984
    118 H51        -2.7100    3.8730   -1.2190 h1        1 MOL      0.082369
    119 H52        -1.5830    2.5110   -3.0850 hc        1 MOL      0.166104
    120 H53        -3.2620    2.9350   -3.3210 hc        1 MOL      0.166104
    121 H54        -1.1180    0.1490   -2.0160 hn        1 MOL      0.372712
    122 H55        -2.1980   -1.0270   -2.6560 hn        1 MOL      0.372712
    123 N12        -5.2270    2.6080   -1.0740 n         1 MOL     -0.447201
    124 C39        -6.5430    2.1780   -0.6060 c3        1 MOL      0.093201
    125 C40        -6.7750    0.6540   -0.6230 c         1 MOL      0.719139
    126 O19        -7.4250    0.1660    0.3190 o         1 MOL     -0.544515
    127 C41        -7.6060    2.9040   -1.4860 c3        1 MOL     -0.091840
    128 C42        -9.0760    2.6150   -0.9920 ca        1 MOL     -0.094642
    129 C43        -9.4180    3.0680    0.3330 ca        1 MOL     -0.082468
    130 C44       -10.0180    1.9010   -1.7660 ca        1 MOL     -0.082468
    131 C45       -10.6770    2.8080    0.8160 ca        1 MOL     -0.353349
    132 C46       -11.2550    1.5440   -1.2310 ca        1 MOL     -0.353349
    133 C47       -11.5680    1.9690    0.0920 ca        1 MOL      0.503626
    134 O20       -12.7900    1.6180    0.5900 oh        1 MOL     -0.608428
    135 H56        -5.2000    3.2500   -1.8420 hn        1 MOL      0.282829
    136 H57        -6.6650    2.5960    0.3920 h1        1 MOL      0.066552
    137 H58        -7.4360    2.5310   -2.4970 hc        1 MOL      0.038453
    138 H59        -7.3200    3.9500   -1.5810 hc        1 MOL      0.038453
    139 H60        -8.7300    3.6650    0.9200 ha        1 MOL      0.136586
    140 H61        -9.6670    1.5010   -2.7060 ha        1 MOL      0.136586
    141 H62       -10.8580    2.9060    1.8740 ha        1 MOL      0.160107
    142 H63       -11.9980    1.0310   -1.8170 ha        1 MOL      0.160107
    143 H64       -13.3480    1.0320    0.0810 ho        1 MOL      0.413743
    144 N13        -6.1710   -0.1700   -1.5010 n         1 MOL     -0.489696
    145 C48        -6.2410   -1.6190   -1.3470 c3        1 MOL      0.011955
    146 C49        -5.4850   -2.2610   -0.1330 c         1 MOL      0.235067
    147 O21        -5.8740   -3.2970    0.4510 o         1 MOL     -0.410795
    148 C50        -5.8610   -2.2760   -2.6560 c3        1 MOL     -0.003600
    149 C51        -5.9530   -3.8370   -2.6350 c3        1 MOL     -0.287019
    150 C52        -7.4240   -4.3060   -2.6010 c         1 MOL      0.765146
    151 O22        -8.2770   -3.6590   -3.2640 o         1 MOL     -0.754888
    152 O23        -7.6450   -5.3860   -2.0200 o         1 MOL     -0.754888
    153 H65        -5.4780    0.2330   -2.1310 hn        1 MOL      0.244228
    154 H66        -7.2660   -1.8690   -1.1140 h1        1 MOL      0.129852
    155 H67        -4.8370   -2.0440   -2.9500 hc        1 MOL      0.022862
    156 H68        -6.4730   -1.7650   -3.3990 hc        1 MOL      0.022862
    157 H69        -5.4380   -4.3050   -1.7980 hc        1 MOL      0.053872
    158 H70        -5.5870   -4.1840   -3.5970 hc        1 MOL      0.053872
    159 N14        -4.3670   -1.5340    0.3140 n         1 MOL     -0.114650
    160 C53        -3.6390   -1.7690    1.5820 c3        1 MOL     -0.136576
    161 C54        -4.4210   -1.2320    2.8110 c         1 MOL      0.459624
    162 O24        -4.4360   -1.8680    3.8400 o         1 MOL     -0.565164
    163 C55        -2.2530   -1.2290    1.5290 c3        1 MOL      0.205640
    164 C56        -1.2880   -1.8560    0.5330 c3        1 MOL     -0.102854
    165 C57        -0.0470   -1.0490    0.3020 c         1 MOL      0.500503
    166 O25         1.1090   -1.5350    0.4570 o         1 MOL     -0.601383
    167 O26        -0.1520    0.1090   -0.2760 o         1 MOL     -0.601383
    168 H71        -4.1360   -0.7530   -0.2850 hn        1 MOL      0.148366
    169 H72        -3.5340   -2.8450    1.7470 h1        1 MOL      0.097018
    170 H73        -1.7500   -1.3240    2.4920 hc        1 MOL     -0.002425
    171 H74        -2.3350   -0.1530    1.3900 hc        1 MOL     -0.002425
    172 H75        -1.7430   -2.1090   -0.4250 hc        1 MOL      0.030038
    173 H76        -1.0960   -2.8010    1.0280 hc        1 MOL      0.030038
    174 N15        -5.2470   -0.2380    2.6190 n         1 MOL      0.023680
    175 C58        -6.0290    0.4060    3.7290 c3        1 MOL     -0.281854
    176 H77        -6.8780   -0.2270    3.9890 h1        1 MOL      0.100023
    177 H78        -5.3880    0.5280    4.6020 h1        1 MOL      0.100023
    178 H79        -6.3900    1.3810    3.4010 h1        1 MOL      0.100023
    179 H80        -5.0170    0.2930    1.7870 hn        1 MOL     -0.063919
    180 Ca1         2.4080    0.0270   -1.0930 Ca        1 MOL      1.696637
    181 O27         2.1110    2.4490   -2.1970 oh        1 MOL     -0.875473
    182 H81         3.0400    2.6270   -2.3200 ho        1 MOL      0.397188
    183 H82         1.6720    3.0520   -2.8040 ho        1 MOL      0.397188
    184 O28         0.9440   -0.2620   -3.3490 oh        1 MOL     -0.875473
    185 H83         1.2380   -1.1270   -3.6520 ho        1 MOL      0.397188
    186 H84         0.5030    0.1200   -4.1100 ho        1 MOL      0.397188
@<TRIPOS>BOND
     1    1    2 1   
     2    1    4 1   
     3    1    5 1   
     4    1    6 1   
     5    2    3 2   
     6    2    7 1   
     7    7    8 1   
     8    7   15 1   
     9    8    9 1   
    10    8   11 1   
    11    8   16 1   
    12    9   10 2   
    13    9   19 1   
    14   11   12 1   
    15   11   17 1   
    16   11   18 1   
    17   12   13 1   
    18   12   14 1   
    19   19   20 1   
    20   19   27 1   
    21   20   21 1   
    22   20   23 1   
    23   20   28 1   
    24   21   22 2   
    25   21   38 1   
    26   23   24 1   
    27   23   25 1   
    28   23   29 1   
    29   24   26 1   
    30   24   30 1   
    31   24   31 1   
    32   25   32 1   
    33   25   33 1   
    34   25   34 1   
    35   26   35 1   
    36   26   36 1   
    37   26   37 1   
    38   38   39 1   
    39   38   46 1   
    40   39   40 1   
    41   39   42 1   
    42   39   47 1   
    43   40   41 2   
    44   40   50 1   
    45   42   43 1   
    46   42   48 1   
    47   42   49 1   
    48   43   44 1   
    49   43   45 1   
    50   50   51 1   
    51   50   54 1   
    52   51   52 1   
    53   51   55 1   
    54   51   56 1   
    55   52   53 2   
    56   52   57 1   
    57   57   58 1   
    58   57   65 1   
    59   58   59 1   
    60   58   61 1   
    61   58   66 1   
    62   59   60 2   
    63   59   69 1   
    64   61   62 1   
    65   61   67 1   
    66   61   68 1   
    67   62   63 1   
    68   62   64 1   
    69   69   70 1   
    70   69   73 1   
    71   70   71 1   
    72   70   74 1   
    73   70   75 1   
    74   71   72 2   
    75   71   76 1   
    76   76   77 1   
    77   76   85 1   
    78   77   78 1   
    79   77   80 1   
    80   77   86 1   
    81   78   79 2   
    82   78   93 1   
    83   80   81 1   
    84   80   87 1   
    85   80   88 1   
    86   81   82 1   
    87   81   89 1   
    88   81   90 1   
    89   82   83 1   
    90   82   84 2   
    91   83   91 1   
    92   83   92 1   
    93   93   94 1   
    94   93  100 1   
    95   94   95 1   
    96   94   97 1   
    97   94  101 1   
    98   95   96 2   
    99   95  109 1   
   100   97   98 1   
   101   97   99 1   
   102   97  102 1   
   103   98  103 1   
   104   98  104 1   
   105   98  105 1   
   106   99  106 1   
   107   99  107 1   
   108   99  108 1   
   109  109  110 1   
   110  109  117 1   
   111  110  111 1   
   112  110  113 1   
   113  110  118 1   
   114  111  112 2   
   115  111  123 1   
   116  113  114 1   
   117  113  119 1   
   118  113  120 1   
   119  114  115 1   
   120  114  116 2   
   121  115  121 1   
   122  115  122 1   
   123  123  124 1   
   124  123  135 1   
   125  124  125 1   
   126  124  127 1   
   127  124  136 1   
   128  125  126 2   
   129  125  144 1   
   130  127  128 1   
   131  127  137 1   
   132  127  138 1   
   133  128  129 ar  
   134  128  130 ar  
   135  129  131 ar  
   136  129  139 1   
   137  130  132 ar  
   138  130  140 1   
   139  131  133 ar  
   140  131  141 1   
   141  132  133 ar  
   142  132  142 1   
   143  133  134 1   
   144  134  143 1   
   145  144  145 1   
   146  144  153 1   
   147  145  146 1   
   148  145  148 1   
   149  145  154 1   
   150  146  147 2   
   151  146  159 1   
   152  148  149 1   
   153  148  155 1   
   154  148  156 1   
   155  149  150 1   
   156  149  157 1   
   157  149  158 1   
   158  150  151 1   
   159  150  152 1   
   160  159  160 1   
   161  159  168 1   
   162  160  161 1   
   163  160  163 1   
   164  160  169 1   
   165  161  162 2   
   166  161  174 1   
   167  163  164 1   
   168  163  170 1   
   169  163  171 1   
   170  164  165 1   
   171  164  172 1   
   172  164  173 1   
   173  165  166 1   
   174  165  167 1   
   175  174  175 1   
   176  174  179 1   
   177  175  176 1   
   178  175  177 1   
   179  175  178 1   
   180  181  182 1   
   181  181  183 1   
   182  184  185 1   
   183  184  186 1   
@<TRIPOS>SUBSTRUCTURE
     1 MOL         1 TEMP              0 ****  ****    0 ROOT
