@<TRIPOS>MOLECULE
MOL
  175   173     1     0     0
SMALL
resp


@<TRIPOS>ATOM
      1 C1          0.6250    4.3030    5.4920 c3        1 MOL     -0.335737
      2 C2          0.0300    4.0320    4.1460 c         1 MOL      0.805022
      3 O1          0.6520    4.2810    3.1350 o         1 MOL     -0.585700
      4 H1          1.0750    3.3900    5.8810 hc        1 MOL      0.080103
      5 H2          1.3900    5.0750    5.4020 hc        1 MOL      0.080103
      6 H3         -0.1550    4.6410    6.1740 hc        1 MOL      0.080103
      7 N1         -1.2230    3.5910    4.0310 n         1 MOL     -0.754085
      8 C3         -1.8850    3.4000    2.7860 c3        1 MOL      0.293557
      9 C4         -2.0260    4.6840    1.9390 c         1 MOL      0.675920
     10 O2         -2.4730    5.6870    2.3660 o         1 MOL     -0.592451
     11 C5         -3.2370    2.7980    3.0280 c3        1 MOL     -0.428026
     12 C6         -4.1100    2.5150    1.8190 c         1 MOL      0.720940
     13 O3         -5.3620    2.6130    1.8920 o         1 MOL     -0.634347
     14 O4         -3.4930    2.0340    0.8130 o         1 MOL     -0.634347
     15 H4         -1.8050    3.5360    4.8470 hn        1 MOL      0.343870
     16 H5         -1.2530    2.7840    2.1490 h1        1 MOL      0.004653
     17 H6         -3.8710    3.2760    3.7770 hc        1 MOL      0.084717
     18 H7         -3.1290    1.8220    3.5050 hc        1 MOL      0.084717
     19 N2         -1.6620    4.5480    0.6450 n         1 MOL     -0.635868
     20 C7         -1.9390    5.4000   -0.4650 c3        1 MOL      0.555761
     21 C8         -3.1660    5.1420   -1.4620 c         1 MOL      0.252165
     22 O5         -3.5280    6.0250   -2.2270 o         1 MOL     -0.561665
     23 C9         -0.5480    5.6350   -1.1680 c3        1 MOL     -0.236361
     24 H8         -1.3430    3.6000    0.4520 hn        1 MOL      0.301605
     25 H9         -2.1110    6.4120   -0.0770 h1        1 MOL     -0.040285
     26 H10         0.1260    6.0510   -0.4200 hc        1 MOL      0.041598
     27 H11        -0.1360    4.7680   -1.6790 hc        1 MOL      0.041598
     28 H12        -0.7630    6.4380   -1.8730 hc        1 MOL      0.041598
     29 N3         -3.7850    3.9840   -1.4800 n         1 MOL     -0.196140
     30 C10        -4.7340    3.6520   -2.5580 c3        1 MOL      0.320704
     31 C11        -6.0260    2.9150   -2.0800 c         1 MOL      0.262776
     32 O6         -7.0700    3.1220   -2.7200 o         1 MOL     -0.553415
     33 C12        -4.1670    2.7090   -3.6370 c3        1 MOL     -0.298412
     34 C13        -3.5360    1.3940   -3.1250 c         1 MOL      0.745499
     35 O7         -3.0050    0.7620   -4.0320 o         1 MOL     -0.679760
     36 O8         -3.5440    1.0500   -1.9110 o         1 MOL     -0.679760
     37 H13        -3.4320    3.3290   -0.7910 hn        1 MOL      0.070255
     38 H14        -5.1870    4.5210   -3.0290 h1        1 MOL      0.024706
     39 H15        -3.4000    3.3600   -4.0460 hc        1 MOL      0.059092
     40 H16        -5.0090    2.5340   -4.3200 hc        1 MOL      0.059092
     41 N4         -6.0510    2.1160   -0.9830 n         1 MOL      0.043268
     42 C14        -7.3490    1.5050   -0.5920 c3        1 MOL     -0.116564
     43 C15        -7.5220    0.0480   -0.9240 c         1 MOL      0.501144
     44 O9         -8.6380   -0.4590   -0.7650 o         1 MOL     -0.627037
     45 H17        -5.3180    2.1760   -0.2900 hn        1 MOL     -0.008344
     46 H18        -8.2460    2.0560   -0.8680 h1        1 MOL      0.078803
     47 H19        -7.3770    1.4750    0.4940 h1        1 MOL      0.078803
     48 N5         -6.4770   -0.6160   -1.3800 n         1 MOL     -0.190210
     49 C16        -6.4230   -2.0130   -1.8250 c3        1 MOL     -0.008238
     50 C17        -6.3070   -3.1150   -0.7260 c         1 MOL      0.385991
     51 O10        -6.2120   -4.2980   -1.0870 o         1 MOL     -0.492087
     52 C18        -5.3100   -2.1360   -2.9450 c3        1 MOL     -0.349564
     53 C19        -3.9410   -2.1180   -2.4150 c         1 MOL      0.785031
     54 N6         -3.0080   -2.3210   -3.2740 n         1 MOL     -0.621883
     55 O11        -3.7200   -1.8990   -1.2630 o         1 MOL     -0.630373
     56 H20        -5.6710   -0.0350   -1.5510 hn        1 MOL      0.134801
     57 H21        -7.3820   -2.1380   -2.3150 h1        1 MOL      0.107998
     58 H22        -5.4430   -1.2560   -3.5640 hc        1 MOL      0.100962
     59 H23        -5.4730   -3.1140   -3.4090 hc        1 MOL      0.100962
     60 H24        -3.1900   -2.6420   -4.2140 hn        1 MOL      0.326111
     61 H25        -2.1120   -1.9880   -2.9250 hn        1 MOL      0.326111
     62 N7         -6.2690   -2.7920    0.5580 n         1 MOL     -0.227811
     63 C20        -6.2960   -3.8730    1.5830 c3        1 MOL     -0.267378
     64 C21        -4.9340   -4.4940    1.7970 c         1 MOL      0.551042
     65 O12        -4.8090   -5.4310    2.6680 o         1 MOL     -0.577594
     66 H26        -6.3320   -1.8380    0.8870 hn        1 MOL      0.257431
     67 H27        -7.0700   -4.6090    1.3600 h1        1 MOL      0.131550
     68 H28        -6.5980   -3.3130    2.4760 h1        1 MOL      0.131550
     69 N8         -3.8600   -3.9160    1.2260 n         1 MOL     -0.315849
     70 C22        -2.5080   -4.5610    1.1810 c3        1 MOL     -0.184742
     71 C23        -1.3960   -3.4830    1.1330 c         1 MOL      0.724643
     72 O13        -1.4960   -2.4560    0.5190 o         1 MOL     -0.603103
     73 C24        -2.2600   -5.5110    0.0010 c3        1 MOL      0.516429
     74 C25        -3.0510   -6.8570    0.0910 c3        1 MOL     -0.369970
     75 O14        -2.5850   -4.9910   -1.2900 oh        1 MOL     -0.603625
     76 H29        -4.0000   -3.1000    0.6380 hn        1 MOL      0.311808
     77 H30        -2.4200   -5.1390    2.1080 h1        1 MOL      0.069912
     78 H31        -1.2020   -5.8000    0.0110 h1        1 MOL     -0.028639
     79 H32        -2.5050   -4.0310   -1.3080 ho        1 MOL      0.296944
     80 H33        -3.1430   -7.1890    1.1220 hc        1 MOL      0.089690
     81 H34        -4.1110   -6.8770   -0.1790 hc        1 MOL      0.089690
     82 H35        -2.5010   -7.7190   -0.2850 hc        1 MOL      0.089690
     83 N9         -0.3010   -3.7560    1.7830 n         1 MOL     -0.664631
     84 C26         0.8530   -2.9100    1.7960 c3        1 MOL     -0.036947
     85 C27         1.5460   -3.0920    0.5290 c         1 MOL      0.715388
     86 O15         2.1360   -4.0880    0.3160 o         1 MOL     -0.613981
     87 C28         1.8870   -3.1340    2.9590 c3        1 MOL      0.208262
     88 C29         1.3140   -3.6480    4.2850 c3        1 MOL      0.026420
     89 C30         2.6410   -1.8750    3.2870 c3        1 MOL     -0.402790
     90 C31         2.3460   -4.0040    5.4450 c3        1 MOL     -0.028705
     91 H36        -0.2230   -4.6760    2.1940 hn        1 MOL      0.305850
     92 H37         0.5220   -1.8700    1.7990 h1        1 MOL      0.250802
     93 H38         2.6160   -3.8680    2.6130 hc        1 MOL     -0.023882
     94 H39         0.7760   -4.5900    4.1150 hc        1 MOL     -0.023712
     95 H40         0.6060   -2.8830    4.5950 hc        1 MOL     -0.023712
     96 H41         1.8400   -1.1530    3.4420 hc        1 MOL      0.078746
     97 H42         3.3730   -1.8450    4.0890 hc        1 MOL      0.078746
     98 H43         3.1650   -1.6580    2.3500 hc        1 MOL      0.078746
     99 H44         2.7330   -5.0150    5.2930 hc        1 MOL      0.007359
    100 H45         3.1840   -3.3410    5.6350 hc        1 MOL      0.007359
    101 H46         1.7730   -4.1370    6.3570 hc        1 MOL      0.007359
    102 N10         1.5380   -2.0240   -0.2650 n         1 MOL     -0.266889
    103 C32         2.4750   -1.9210   -1.4070 c3        1 MOL      0.037301
    104 C33         3.8890   -1.4980   -0.9840 c         1 MOL      0.282951
    105 O16         4.0150   -0.9610    0.0900 o         1 MOL     -0.152466
    106 C34         1.8390   -0.8850   -2.3910 c3        1 MOL     -0.295362
    107 C35         0.4220   -1.2810   -2.8250 c         1 MOL      0.668871
    108 O17        -0.5420   -0.9790   -2.0350 o         1 MOL     -0.644655
    109 O18         0.1580   -1.7770   -3.9520 o         1 MOL     -0.644655
    110 H47         1.1210   -1.1800    0.0900 hn        1 MOL     -0.032357
    111 H48         2.4610   -2.9220   -1.8290 h1        1 MOL      0.070778
    112 H49         2.4430   -0.7550   -3.2950 hc        1 MOL      0.094636
    113 H50         1.7810   -0.0080   -1.7570 hc        1 MOL      0.094636
    114 N11         4.9140   -1.7370   -1.7960 n         1 MOL     -0.505412
    115 C36         6.2560   -1.4970   -1.3270 c3        1 MOL      0.240756
    116 C37         6.6010   -0.0410   -0.9850 c         1 MOL      0.281658
    117 O19         7.2640    0.2190    0.0120 o         1 MOL     -0.495221
    118 C38         7.1940   -1.9860   -2.4490 c3        1 MOL     -0.186558
    119 C39         8.6560   -1.7480   -2.1640 ca        1 MOL      0.126509
    120 C40         9.2830   -0.7070   -2.8550 ca        1 MOL     -0.222771
    121 C41         9.3640   -2.4650   -1.2640 ca        1 MOL     -0.222771
    122 C42        10.7060   -0.5840   -2.6270 ca        1 MOL      0.005479
    123 C43        10.7460   -2.3410   -1.0250 ca        1 MOL      0.005479
    124 C44        11.4930   -1.4340   -1.7760 ca        1 MOL     -0.253918
    125 H51         4.7230   -1.8820   -2.7820 hn        1 MOL      0.314883
    126 H52         6.3370   -2.1850   -0.4770 h1        1 MOL      0.074224
    127 H53         6.8790   -1.5470   -3.3940 hc        1 MOL      0.064827
    128 H54         6.9370   -3.0360   -2.5990 hc        1 MOL      0.064827
    129 H55         8.8150    0.0040   -3.5130 ha        1 MOL      0.117179
    130 H56         8.7400   -3.2110   -0.8040 ha        1 MOL      0.117179
    131 H57        11.2340    0.1140   -3.2550 ha        1 MOL      0.078931
    132 H58        11.1780   -2.9340   -0.2340 ha        1 MOL      0.078931
    133 H59        12.5420   -1.2340   -1.6170 ha        1 MOL      0.146225
    134 N12         6.2540    0.9270   -1.8090 n         1 MOL      0.083109
    135 C45         6.5690    2.2780   -1.3240 c3        1 MOL     -0.001829
    136 C46         5.8210    2.6960   -0.0290 c         1 MOL      0.448542
    137 O20         6.2190    3.6680    0.5500 o         1 MOL     -0.525112
    138 C47         6.1970    3.2380   -2.5210 c3        1 MOL     -0.296507
    139 C48         5.0280    2.4870   -3.1260 c3        1 MOL      0.154797
    140 C49         5.4470    1.0230   -3.0160 c3        1 MOL     -0.211782
    141 H60         7.6240    2.3950   -1.1040 h1        1 MOL      0.065096
    142 H61         5.8080    4.2380   -2.2920 hc        1 MOL      0.102094
    143 H62         7.0380    3.2300   -3.2110 hc        1 MOL      0.102094
    144 H63         4.0770    2.6070   -2.6090 hc        1 MOL      0.007422
    145 H64         4.7700    2.7670   -4.1500 hc        1 MOL      0.007422
    146 H65         4.5600    0.4020   -2.8690 h1        1 MOL      0.058458
    147 H66         6.0730    0.7310   -3.8630 h1        1 MOL      0.058458
    148 N13         4.7270    2.0800    0.3570 n         1 MOL     -0.263254
    149 C50         4.0510    2.2570    1.6610 c3        1 MOL     -0.083491
    150 C51         4.9010    1.5010    2.7160 c         1 MOL      0.410509
    151 O21         5.1880    1.9480    3.8510 o         1 MOL     -0.555242
    152 C52         2.6300    1.7430    1.6900 c3        1 MOL      0.106697
    153 C53         1.7860    2.2070    0.4860 c3        1 MOL     -0.002401
    154 C54         0.4530    1.5480    0.3880 c         1 MOL      0.694098
    155 O22        -0.3670    1.9970   -0.4480 o         1 MOL     -0.734225
    156 O23         0.2770    0.4330    0.9340 o         1 MOL     -0.734225
    157 H67         4.4290    1.3040   -0.2180 hn        1 MOL      0.243144
    158 H68         4.0550    3.3130    1.9330 h1        1 MOL      0.114332
    159 H69         2.2290    2.1720    2.6050 hc        1 MOL     -0.035373
    160 H70         2.6060    0.6580    1.7880 hc        1 MOL     -0.035373
    161 H71         2.3610    1.9500   -0.3950 hc        1 MOL      0.013676
    162 H72         1.6590    3.2880    0.5660 hc        1 MOL      0.013676
    163 N14         5.4350    0.2760    2.4140 n         1 MOL      0.064011
    164 C55         6.3370   -0.4480    3.3040 c3        1 MOL     -0.286293
    165 H73         6.2640   -1.5170    3.1030 h1        1 MOL      0.099275
    166 H74         7.3610   -0.1170    3.1330 h1        1 MOL      0.099275
    167 H75         6.0600   -0.2530    4.3400 h1        1 MOL      0.099275
    168 H76         5.2360   -0.1030    1.4950 hn        1 MOL     -0.044304
    169 Ca1        -2.0480    0.0380   -0.1410 Ca        1 MOL      1.669537
    170 O24        -1.4720   -0.1040    2.8220 oh        1 MOL     -0.902948
    171 H77        -0.5510   -0.3220    2.6700 ho        1 MOL      0.429814
    172 H78        -1.4440    0.4850    3.5800 ho        1 MOL      0.429814
    173 O25        -3.8230   -0.9340    1.6800 oh        1 MOL     -0.902948
    174 H79        -3.1560   -0.7550    2.3370 ho        1 MOL      0.429814
    175 H80        -4.6540   -0.7790    2.1250 ho        1 MOL      0.429814
@<TRIPOS>BOND
     1    1    2 1   
     2    1    4 1   
     3    1    5 1   
     4    1    6 1   
     5    2    3 2   
     6    2    7 1   
     7    7    8 1   
     8    7   15 1   
     9    8    9 1   
    10    8   11 1   
    11    8   16 1   
    12    9   10 2   
    13    9   19 1   
    14   11   12 1   
    15   11   17 1   
    16   11   18 1   
    17   12   13 1   
    18   12   14 1   
    19   19   20 1   
    20   19   24 1   
    21   20   21 1   
    22   20   23 1   
    23   20   25 1   
    24   21   22 2   
    25   21   29 1   
    26   23   26 1   
    27   23   27 1   
    28   23   28 1   
    29   29   30 1   
    30   29   37 1   
    31   30   31 1   
    32   30   33 1   
    33   30   38 1   
    34   31   32 2   
    35   31   41 1   
    36   33   34 1   
    37   33   39 1   
    38   33   40 1   
    39   34   35 1   
    40   34   36 1   
    41   41   42 1   
    42   41   45 1   
    43   42   43 1   
    44   42   46 1   
    45   42   47 1   
    46   43   44 2   
    47   43   48 1   
    48   48   49 1   
    49   48   56 1   
    50   49   50 1   
    51   49   52 1   
    52   49   57 1   
    53   50   51 2   
    54   50   62 1   
    55   52   53 1   
    56   52   58 1   
    57   52   59 1   
    58   53   54 1   
    59   53   55 2   
    60   54   60 1   
    61   54   61 1   
    62   62   63 1   
    63   62   66 1   
    64   63   64 1   
    65   63   67 1   
    66   63   68 1   
    67   64   65 2   
    68   64   69 1   
    69   69   70 1   
    70   69   76 1   
    71   70   71 1   
    72   70   73 1   
    73   70   77 1   
    74   71   72 2   
    75   71   83 1   
    76   73   74 1   
    77   73   75 1   
    78   73   78 1   
    79   74   80 1   
    80   74   81 1   
    81   74   82 1   
    82   75   79 1   
    83   83   84 1   
    84   83   91 1   
    85   84   85 1   
    86   84   87 1   
    87   84   92 1   
    88   85   86 2   
    89   85  102 1   
    90   87   88 1   
    91   87   89 1   
    92   87   93 1   
    93   88   90 1   
    94   88   94 1   
    95   88   95 1   
    96   89   96 1   
    97   89   97 1   
    98   89   98 1   
    99   90   99 1   
   100   90  100 1   
   101   90  101 1   
   102  102  103 1   
   103  102  110 1   
   104  103  104 1   
   105  103  106 1   
   106  103  111 1   
   107  104  105 2   
   108  104  114 1   
   109  106  107 1   
   110  106  112 1   
   111  106  113 1   
   112  107  108 1   
   113  107  109 1   
   114  114  115 1   
   115  114  125 1   
   116  115  116 1   
   117  115  118 1   
   118  115  126 1   
   119  116  117 2   
   120  116  134 1   
   121  118  119 1   
   122  118  127 1   
   123  118  128 1   
   124  119  120 ar  
   125  119  121 ar  
   126  120  122 ar  
   127  120  129 1   
   128  121  123 ar  
   129  121  130 1   
   130  122  124 ar  
   131  122  131 1   
   132  123  124 ar  
   133  123  132 1   
   134  124  133 1   
   135  134  135 1   
   136  134  140 1   
   137  135  136 1   
   138  135  138 1   
   139  135  141 1   
   140  136  137 2   
   141  136  148 1   
   142  138  139 1   
   143  138  142 1   
   144  138  143 1   
   145  139  140 1   
   146  139  144 1   
   147  139  145 1   
   148  140  146 1   
   149  140  147 1   
   150  148  149 1   
   151  148  157 1   
   152  149  150 1   
   153  149  152 1   
   154  149  158 1   
   155  150  151 2   
   156  150  163 1   
   157  152  153 1   
   158  152  159 1   
   159  152  160 1   
   160  153  154 1   
   161  153  161 1   
   162  153  162 1   
   163  154  155 1   
   164  154  156 1   
   165  163  164 1   
   166  163  168 1   
   167  164  165 1   
   168  164  166 1   
   169  164  167 1   
   170  170  171 1   
   171  170  172 1   
   172  173  174 1   
   173  173  175 1   
@<TRIPOS>SUBSTRUCTURE
     1 MOL         1 TEMP              0 ****  ****    0 ROOT
