@<TRIPOS>MOLECULE
MOL
  175   173     1     0     0
SMALL
resp


@<TRIPOS>ATOM
      1 C1          0.8150    4.4840    5.4270 c3        1 MOL     -0.431585
      2 C2          0.3330    4.2970    3.9760 c         1 MOL      0.694053
      3 O1          1.1380    4.0970    3.0400 o         1 MOL     -0.556667
      4 H1         -0.0430    4.4690    6.1000 hc        1 MOL      0.113518
      5 H2          1.4970    3.6750    5.6910 hc        1 MOL      0.113518
      6 H3          1.3320    5.4390    5.5190 hc        1 MOL      0.113518
      7 N1         -0.9930    4.2900    3.7280 n         1 MOL     -0.684818
      8 C3         -1.6030    3.9760    2.4700 c3        1 MOL      0.235018
      9 C4         -1.4570    5.0960    1.4090 c         1 MOL      0.659184
     10 O2         -1.2910    6.2680    1.7150 o         1 MOL     -0.581080
     11 C5         -3.0690    3.4560    2.6520 c3        1 MOL     -0.319539
     12 C6         -3.9040    3.0280    1.4280 c         1 MOL      0.681283
     13 O3         -5.0610    3.4580    1.3500 o         1 MOL     -0.622881
     14 O4         -3.4270    2.2680    0.5260 o         1 MOL     -0.622881
     15 H4         -1.6140    4.6390    4.4470 hn        1 MOL      0.335215
     16 H5         -0.9800    3.1850    2.0530 h1        1 MOL      0.087028
     17 H6         -3.6070    4.2220    3.2130 hc        1 MOL      0.060306
     18 H7         -3.0520    2.5340    3.2310 hc        1 MOL      0.060306
     19 N2         -1.7600    4.6910    0.1500 n         1 MOL     -0.594552
     20 C7         -1.8120    5.5730   -1.0520 c3        1 MOL      0.208821
     21 C8         -2.8320    5.0550   -2.1240 c         1 MOL      0.507741
     22 O5         -3.1140    5.7570   -3.0780 o         1 MOL     -0.589965
     23 C9         -0.4090    5.7120   -1.7060 c3        1 MOL     -0.327980
     24 H8         -1.7560    3.6980   -0.0330 hn        1 MOL      0.300383
     25 H9         -2.2430    6.5390   -0.7870 h1        1 MOL      0.049859
     26 H10         0.2700    6.0450   -0.9320 hc        1 MOL      0.086609
     27 H11         0.0240    4.7740   -2.0570 hc        1 MOL      0.086609
     28 H12        -0.4780    6.4380   -2.5240 hc        1 MOL      0.086609
     29 N3         -3.5290    3.9580   -1.9250 n         1 MOL     -0.345721
     30 C10        -4.4520    3.3940   -2.9080 c3        1 MOL      0.092548
     31 C11        -5.7380    2.6920   -2.4140 c         1 MOL      0.285098
     32 O6         -6.6420    2.5070   -3.2630 o         1 MOL     -0.541065
     33 C12        -3.6180    2.3410   -3.7410 c3        1 MOL     -0.312701
     34 C13        -3.1100    1.2250   -2.9360 c         1 MOL      0.864670
     35 O7         -3.7120    0.7850   -1.9660 o         1 MOL     -0.755753
     36 O8         -1.9900    0.8020   -3.2820 o         1 MOL     -0.755753
     37 H13        -3.3700    3.3760   -1.1210 hn        1 MOL      0.263874
     38 H14        -4.6950    4.1860   -3.6170 h1        1 MOL      0.095884
     39 H15        -2.7820    2.8760   -4.1680 hc        1 MOL      0.081021
     40 H16        -4.3150    1.8720   -4.4440 hc        1 MOL      0.081021
     41 N4         -5.8610    2.3160   -1.1360 n         1 MOL      0.002805
     42 C14        -6.9930    1.7160   -0.5270 c3        1 MOL     -0.031594
     43 C15        -7.2870    0.2830   -0.9580 c         1 MOL      0.421188
     44 O9         -8.4300   -0.0450   -1.0200 o         1 MOL     -0.604077
     45 H17        -5.0630    2.4670   -0.5190 hn        1 MOL     -0.034465
     46 H18        -7.9210    2.2810   -0.6600 h1        1 MOL      0.047153
     47 H19        -6.8520    1.6640    0.5480 h1        1 MOL      0.047153
     48 N5         -6.3160   -0.4850   -1.3160 n         1 MOL     -0.126393
     49 C16        -6.4160   -1.8150   -1.8840 c3        1 MOL     -0.170345
     50 C17        -6.5070   -2.9750   -0.9080 c         1 MOL      0.540721
     51 O10        -6.5190   -4.1320   -1.2480 o         1 MOL     -0.529713
     52 C18        -5.3430   -1.9940   -2.9050 c3        1 MOL      0.074300
     53 C19        -3.8700   -2.4030   -2.3310 c         1 MOL      0.336996
     54 N6         -3.0640   -3.0730   -3.1630 n         1 MOL     -0.554849
     55 O11        -3.5470   -2.2040   -1.2100 o         1 MOL     -0.445641
     56 H20        -5.4220   -0.0130   -1.3100 hn        1 MOL      0.273462
     57 H21        -7.3500   -1.9140   -2.4450 h1        1 MOL      0.120675
     58 H22        -5.3320   -1.1840   -3.6360 hc        1 MOL      0.010585
     59 H23        -5.6520   -2.8400   -3.5060 hc        1 MOL      0.010585
     60 H24        -3.4190   -3.2620   -4.0810 hn        1 MOL      0.312735
     61 H25        -2.1430   -3.3670   -2.8900 hn        1 MOL      0.312735
     62 N7         -6.4990   -2.6800    0.4270 n         1 MOL     -0.349132
     63 C20        -6.7080   -3.6370    1.5650 c3        1 MOL     -0.130454
     64 C21        -5.3950   -4.2620    2.0670 c         1 MOL      0.572835
     65 O12        -5.5420   -4.9520    3.0460 o         1 MOL     -0.569156
     66 H26        -6.3350   -1.7070    0.6490 hn        1 MOL      0.216112
     67 H27        -7.4650   -4.4190    1.4560 h1        1 MOL      0.094096
     68 H28        -7.0240   -3.0750    2.4370 h1        1 MOL      0.094096
     69 N8         -4.2510   -3.8550    1.4540 n         1 MOL     -0.302616
     70 C22        -2.8970   -4.4070    1.6750 c3        1 MOL     -0.214604
     71 C23        -1.8000   -3.3930    1.6980 c         1 MOL      0.746567
     72 O13        -1.9380   -2.3350    1.1190 o         1 MOL     -0.685731
     73 C24        -2.5270   -5.4550    0.6510 c3        1 MOL      0.493226
     74 C25        -3.3640   -6.6940    0.6930 c3        1 MOL     -0.452877
     75 O14        -2.6640   -4.9580   -0.6560 oh        1 MOL     -0.536941
     76 H29        -4.2910   -3.1050    0.7880 hn        1 MOL      0.218659
     77 H30        -2.9400   -4.7630    2.7050 h1        1 MOL      0.091076
     78 H31        -1.4760   -5.7350    0.7660 h1        1 MOL     -0.042064
     79 H32        -2.5670   -4.0060   -0.5830 ho        1 MOL      0.311496
     80 H33        -4.3820   -6.5070    0.3400 hc        1 MOL      0.110566
     81 H34        -2.9720   -7.4270   -0.0190 hc        1 MOL      0.110566
     82 H35        -3.4120   -7.1120    1.7020 hc        1 MOL      0.110566
     83 N9         -0.7530   -3.6730    2.4100 n         1 MOL     -0.626764
     84 C26         0.4880   -2.8480    2.1950 c3        1 MOL      0.038011
     85 C27         1.2180   -3.2620    0.9400 c         1 MOL      0.731879
     86 O15         1.3580   -4.4230    0.6240 o         1 MOL     -0.590356
     87 C28         1.3710   -2.8370    3.5130 c3        1 MOL      0.159416
     88 C29         1.0570   -1.5670    4.3280 c3        1 MOL     -0.124047
     89 C30         2.8620   -2.9830    3.2400 c3        1 MOL     -0.392033
     90 C31         1.6290   -1.4420    5.7610 c3        1 MOL     -0.052530
     91 H36        -0.6120   -4.5700    2.8610 hn        1 MOL      0.296361
     92 H37         0.0380   -1.8600    2.0310 h1        1 MOL      0.080508
     93 H38         1.0760   -3.6890    4.1150 hc        1 MOL      0.013583
     94 H39        -0.0180   -1.4000    4.4240 hc        1 MOL      0.044479
     95 H40         1.6180   -0.8140    3.7840 hc        1 MOL      0.044479
     96 H41         3.0730   -3.9760    2.8310 hc        1 MOL      0.093332
     97 H42         3.1040   -2.1780    2.5470 hc        1 MOL      0.093332
     98 H43         3.3920   -2.6610    4.1330 hc        1 MOL      0.093332
     99 H44         2.7180   -1.3570    5.7130 hc        1 MOL      0.012633
    100 H45         1.2220   -0.6050    6.3070 hc        1 MOL      0.012633
    101 H46         1.4340   -2.3540    6.3240 hc        1 MOL      0.012633
    102 N10         1.7450   -2.2460    0.1830 n         1 MOL     -0.587874
    103 C32         2.5820   -2.3660   -1.0270 c3        1 MOL      0.059893
    104 C33         3.9550   -1.5910   -0.9230 c         1 MOL      0.329624
    105 O16         4.2120   -0.8580    0.0160 o         1 MOL     -0.108408
    106 C34         1.8790   -1.7840   -2.2320 c3        1 MOL     -0.162959
    107 C35         0.4770   -2.1910   -2.4990 c         1 MOL      0.749178
    108 O17        -0.4240   -1.7510   -1.6970 o         1 MOL     -0.676541
    109 O18         0.2430   -2.8280   -3.5280 o         1 MOL     -0.676541
    110 H47         1.5350   -1.3080    0.5010 hn        1 MOL      0.275520
    111 H48         2.7870   -3.4050   -1.2660 h1        1 MOL      0.095102
    112 H49         2.4170   -1.9650   -3.1680 hc        1 MOL      0.033201
    113 H50         1.9790   -0.6900   -2.2310 hc        1 MOL      0.033201
    114 N11         4.9110   -1.8560   -1.8200 n         1 MOL     -0.753507
    115 C36         6.3090   -1.5100   -1.5100 c3        1 MOL      0.642500
    116 C37         6.6420   -0.0170   -1.1110 c         1 MOL      0.225944
    117 O19         7.4580    0.0980   -0.1640 o         1 MOL     -0.473298
    118 C38         7.1520   -1.9880   -2.7240 c3        1 MOL     -0.393516
    119 C39         8.6400   -2.0540   -2.4570 ca        1 MOL      0.147479
    120 C40         9.1080   -2.3490   -1.1450 ca        1 MOL     -0.170323
    121 C41         9.5280   -1.7650   -3.5020 ca        1 MOL     -0.170323
    122 C42        10.4550   -2.2450   -0.9090 ca        1 MOL     -0.145951
    123 C43        10.8850   -1.7470   -3.1650 ca        1 MOL     -0.145951
    124 C44        11.3340   -1.9540   -1.8700 ca        1 MOL     -0.029038
    125 H51         4.7430   -2.5290   -2.5580 hn        1 MOL      0.359806
    126 H52         6.4470   -2.1780   -0.6570 h1        1 MOL      0.013590
    127 H53         7.0390   -1.3140   -3.5600 hc        1 MOL      0.091899
    128 H54         6.7560   -2.9200   -3.1350 hc        1 MOL      0.091899
    129 H55         8.5150   -2.5220   -0.2540 ha        1 MOL      0.120258
    130 H56         9.1230   -1.6290   -4.4930 ha        1 MOL      0.120258
    131 H57        10.7430   -2.4280    0.1190 ha        1 MOL      0.108500
    132 H58        11.5460   -1.3680   -3.9230 ha        1 MOL      0.108500
    133 H59        12.3970   -1.9410   -1.7140 ha        1 MOL      0.068316
    134 N12         6.0590    1.0590   -1.6670 n         1 MOL     -0.131248
    135 C45         6.1510    2.4370   -1.1430 c3        1 MOL      0.041818
    136 C46         5.6400    2.8470    0.2630 c         1 MOL      0.269988
    137 O20         5.9150    3.9190    0.8020 o         1 MOL     -0.515488
    138 C47         5.5290    3.3300   -2.2350 c3        1 MOL      0.007244
    139 C48         5.3750    2.4950   -3.5670 c3        1 MOL     -0.148375
    140 C49         5.3380    1.1090   -2.9330 c3        1 MOL      0.036531
    141 H60         7.1910    2.7410   -1.0200 h1        1 MOL      0.065092
    142 H61         4.5130    3.5410   -1.8980 hc        1 MOL      0.028051
    143 H62         6.1210    4.2260   -2.4220 hc        1 MOL      0.028051
    144 H63         4.4310    2.7360   -4.0540 hc        1 MOL      0.059356
    145 H64         6.2330    2.5340   -4.2360 hc        1 MOL      0.059356
    146 H65         4.2910    0.9490   -2.6950 h1        1 MOL      0.056575
    147 H66         5.6050    0.3750   -3.7010 h1        1 MOL      0.056575
    148 N13         4.9040    1.9600    0.8320 n         1 MOL      0.048661
    149 C50         4.1780    1.9730    2.0700 c3        1 MOL     -0.090767
    150 C51         4.8280    1.0410    3.0590 c         1 MOL      0.477463
    151 O21         4.8850    1.3650    4.2710 o         1 MOL     -0.549695
    152 C52         2.7520    1.5400    1.8140 c3        1 MOL      0.032941
    153 C53         1.9690    2.0420    0.6520 c3        1 MOL     -0.053069
    154 C54         0.6960    1.2860    0.3870 c         1 MOL      0.646027
    155 O22         0.5820    0.1240    0.8900 o         1 MOL     -0.753655
    156 O23        -0.3600    1.7110   -0.2210 o         1 MOL     -0.753655
    157 H67         4.7140    1.1530    0.2570 hn        1 MOL     -0.030279
    158 H68         4.2950    2.9720    2.4790 h1        1 MOL      0.081778
    159 H69         2.1320    1.6280    2.7070 hc        1 MOL      0.033070
    160 H70         2.9150    0.4710    1.6280 hc        1 MOL      0.033070
    161 H71         2.5190    1.7310   -0.2390 hc        1 MOL      0.058582
    162 H72         1.8170    3.1170    0.6610 hc        1 MOL      0.058582
    163 N14         5.3260   -0.1230    2.5390 n         1 MOL     -0.042527
    164 C55         6.2670   -0.8900    3.3020 c3        1 MOL     -0.239764
    165 H73         6.5950   -1.7480    2.7150 h1        1 MOL      0.084719
    166 H74         7.1280   -0.2680    3.5480 h1        1 MOL      0.084719
    167 H75         5.7940   -1.2370    4.2200 h1        1 MOL      0.084719
    168 H76         5.1360   -0.4380    1.5970 hn        1 MOL     -0.026070
    169 Ca1        -1.9730   -0.2020   -0.2840 Ca        1 MOL      1.693826
    170 O24        -1.6880    0.2890    2.4160 oh        1 MOL     -0.760806
    171 H77        -1.8480    0.3960    3.3440 ho        1 MOL      0.376758
    172 H78        -0.7660    0.0450    2.3540 ho        1 MOL      0.376758
    173 O25        -4.7270   -0.1580    1.0420 oh        1 MOL     -0.760806
    174 H79        -5.0970   -0.4130    1.8790 ho        1 MOL      0.376758
    175 H80        -4.6280    0.7940    1.1010 ho        1 MOL      0.376758
@<TRIPOS>BOND
     1    1    2 1   
     2    1    4 1   
     3    1    5 1   
     4    1    6 1   
     5    2    3 2   
     6    2    7 1   
     7    7    8 1   
     8    7   15 1   
     9    8    9 1   
    10    8   11 1   
    11    8   16 1   
    12    9   10 2   
    13    9   19 1   
    14   11   12 1   
    15   11   17 1   
    16   11   18 1   
    17   12   13 1   
    18   12   14 1   
    19   19   20 1   
    20   19   24 1   
    21   20   21 1   
    22   20   23 1   
    23   20   25 1   
    24   21   22 2   
    25   21   29 1   
    26   23   26 1   
    27   23   27 1   
    28   23   28 1   
    29   29   30 1   
    30   29   37 1   
    31   30   31 1   
    32   30   33 1   
    33   30   38 1   
    34   31   32 2   
    35   31   41 1   
    36   33   34 1   
    37   33   39 1   
    38   33   40 1   
    39   34   35 1   
    40   34   36 1   
    41   41   42 1   
    42   41   45 1   
    43   42   43 1   
    44   42   46 1   
    45   42   47 1   
    46   43   44 2   
    47   43   48 1   
    48   48   49 1   
    49   48   56 1   
    50   49   50 1   
    51   49   52 1   
    52   49   57 1   
    53   50   51 2   
    54   50   62 1   
    55   52   53 1   
    56   52   58 1   
    57   52   59 1   
    58   53   54 1   
    59   53   55 2   
    60   54   60 1   
    61   54   61 1   
    62   62   63 1   
    63   62   66 1   
    64   63   64 1   
    65   63   67 1   
    66   63   68 1   
    67   64   65 2   
    68   64   69 1   
    69   69   70 1   
    70   69   76 1   
    71   70   71 1   
    72   70   73 1   
    73   70   77 1   
    74   71   72 2   
    75   71   83 1   
    76   73   74 1   
    77   73   75 1   
    78   73   78 1   
    79   74   80 1   
    80   74   81 1   
    81   74   82 1   
    82   75   79 1   
    83   83   84 1   
    84   83   91 1   
    85   84   85 1   
    86   84   87 1   
    87   84   92 1   
    88   85   86 2   
    89   85  102 1   
    90   87   88 1   
    91   87   89 1   
    92   87   93 1   
    93   88   90 1   
    94   88   94 1   
    95   88   95 1   
    96   89   96 1   
    97   89   97 1   
    98   89   98 1   
    99   90   99 1   
   100   90  100 1   
   101   90  101 1   
   102  102  103 1   
   103  102  110 1   
   104  103  104 1   
   105  103  106 1   
   106  103  111 1   
   107  104  105 2   
   108  104  114 1   
   109  106  107 1   
   110  106  112 1   
   111  106  113 1   
   112  107  108 1   
   113  107  109 1   
   114  114  115 1   
   115  114  125 1   
   116  115  116 1   
   117  115  118 1   
   118  115  126 1   
   119  116  117 2   
   120  116  134 1   
   121  118  119 1   
   122  118  127 1   
   123  118  128 1   
   124  119  120 ar  
   125  119  121 ar  
   126  120  122 ar  
   127  120  129 1   
   128  121  123 ar  
   129  121  130 1   
   130  122  124 ar  
   131  122  131 1   
   132  123  124 ar  
   133  123  132 1   
   134  124  133 1   
   135  134  135 1   
   136  134  140 1   
   137  135  136 1   
   138  135  138 1   
   139  135  141 1   
   140  136  137 2   
   141  136  148 1   
   142  138  139 1   
   143  138  142 1   
   144  138  143 1   
   145  139  140 1   
   146  139  144 1   
   147  139  145 1   
   148  140  146 1   
   149  140  147 1   
   150  148  149 1   
   151  148  157 1   
   152  149  150 1   
   153  149  152 1   
   154  149  158 1   
   155  150  151 2   
   156  150  163 1   
   157  152  153 1   
   158  152  159 1   
   159  152  160 1   
   160  153  154 1   
   161  153  161 1   
   162  153  162 1   
   163  154  155 1   
   164  154  156 1   
   165  163  164 1   
   166  163  168 1   
   167  164  165 1   
   168  164  166 1   
   169  164  167 1   
   170  170  171 1   
   171  170  172 1   
   172  173  174 1   
   173  173  175 1   
@<TRIPOS>SUBSTRUCTURE
     1 MOL         1 TEMP              0 ****  ****    0 ROOT
