@<TRIPOS>MOLECULE
MOL
  172   171     1     0     0
SMALL
resp


@<TRIPOS>ATOM
      1 C1          0.2460   -3.4370    5.8960 c3        1 MOL     -0.414448
      2 C2          0.7750   -3.5510    4.4680 c         1 MOL      0.729798
      3 O1          0.0130   -4.0280    3.6690 o         1 MOL     -0.585728
      4 H1         -0.7070   -2.9060    5.8880 hc        1 MOL      0.096321
      5 H2          0.1020   -4.4340    6.3120 hc        1 MOL      0.096321
      6 H3          0.9610   -2.8870    6.5070 hc        1 MOL      0.096321
      7 N1          1.8950   -2.9890    4.1290 n         1 MOL     -0.624443
      8 C3          2.3640   -2.7580    2.7720 c3        1 MOL      0.093550
      9 C4          2.6680   -4.0290    1.9590 c         1 MOL      0.604966
     10 O2          3.5210   -4.8660    2.3240 o         1 MOL     -0.592405
     11 C5          3.5510   -1.7730    2.8890 c3        1 MOL     -0.213086
     12 C6          4.1850   -1.3430    1.5810 c         1 MOL      0.857174
     13 O3          5.3520   -0.8700    1.6050 o         1 MOL     -0.698973
     14 O4          3.4510   -1.4250    0.4980 o         1 MOL     -0.698973
     15 H4          2.5640   -2.7680    4.8630 hn        1 MOL      0.326380
     16 H5          1.6050   -2.1190    2.3140 h1        1 MOL      0.155737
     17 H6          4.3020   -2.3380    3.4520 hc        1 MOL      0.018419
     18 H7          3.3090   -0.8950    3.4780 hc        1 MOL      0.018419
     19 N2          1.9810   -4.1280    0.8340 n         1 MOL     -0.534508
     20 C7          1.9170   -5.2690   -0.1250 c3        1 MOL      0.366706
     21 C8          2.8610   -5.0520   -1.3230 c         1 MOL      0.404455
     22 O5          3.1010   -6.0050   -2.0490 o         1 MOL     -0.574582
     23 C9          0.4660   -5.5410   -0.5790 c3        1 MOL     -0.407087
     24 H8          1.4190   -3.3220    0.6410 hn        1 MOL      0.295500
     25 H9          2.3500   -6.1680    0.3310 h1        1 MOL      0.010825
     26 H10         0.0230   -6.2400    0.1180 hc        1 MOL      0.106117
     27 H11        -0.0760   -4.6130   -0.7530 hc        1 MOL      0.106117
     28 H12         0.5040   -6.0490   -1.5470 hc        1 MOL      0.106117
     29 N3          3.4420   -3.8350   -1.6240 n         1 MOL     -0.215689
     30 C10         4.2600   -3.5860   -2.8310 c3        1 MOL      0.016834
     31 C11         5.6770   -3.0610   -2.4920 c         1 MOL      0.407965
     32 O6          6.5360   -2.8640   -3.3190 o         1 MOL     -0.539649
     33 C12         3.4890   -2.6040   -3.7570 c3        1 MOL     -0.089290
     34 C13         3.1760   -1.2280   -3.2110 c         1 MOL      0.799030
     35 O7          3.9580   -0.7620   -2.3750 o         1 MOL     -0.742611
     36 O8          2.1520   -0.5980   -3.4830 o         1 MOL     -0.742611
     37 H13         3.2260   -3.0940   -0.9710 hn        1 MOL      0.120922
     38 H14         4.3740   -4.5370   -3.3460 h1        1 MOL      0.103021
     39 H15         2.5300   -3.0700   -3.9870 hc        1 MOL      0.007413
     40 H16         3.9630   -2.4320   -4.7250 hc        1 MOL      0.007413
     41 N4          5.9910   -2.8530   -1.1900 n         1 MOL     -0.202841
     42 C14         7.3230   -2.3330   -0.7290 c3        1 MOL     -0.352148
     43 C15         7.5520   -0.8210   -0.8460 c         1 MOL      0.677813
     44 O9          8.5950   -0.3850   -0.3970 o         1 MOL     -0.622641
     45 H17         5.2020   -2.9610   -0.5770 hn        1 MOL      0.150075
     46 H18         8.0750   -2.8900   -1.3010 h1        1 MOL      0.149536
     47 H19         7.3450   -2.5470    0.3390 h1        1 MOL      0.149536
     48 N5          6.5950    0.0250   -1.2480 n         1 MOL     -0.325039
     49 C16         6.7170    1.4520   -1.5990 c3        1 MOL     -0.027044
     50 C17         6.5580    2.2940   -0.3550 c         1 MOL      0.448096
     51 O10         6.8880    3.4790   -0.4180 o         1 MOL     -0.560089
     52 C18         5.7470    1.8490   -2.7650 c3        1 MOL     -0.248841
     53 C19         4.3790    2.2890   -2.2930 c         1 MOL      0.654918
     54 N6          3.6520    2.9710   -3.1580 n         1 MOL     -0.624481
     55 O11         3.7720    1.9570   -1.2620 o         1 MOL     -0.882316
     56 H20         5.6910   -0.3540   -1.4650 hn        1 MOL      0.223518
     57 H21         7.7530    1.5440   -1.9430 h1        1 MOL      0.109312
     58 H22         5.5330    1.0930   -3.5220 hc        1 MOL      0.117772
     59 H23         6.2730    2.5790   -3.3690 hc        1 MOL      0.117772
     60 H24         3.9840    3.1080   -4.1040 hn        1 MOL      0.334346
     61 H25         2.6910    3.0670   -2.8700 hn        1 MOL      0.334346
     62 N7          6.1100    1.7610    0.7940 n         1 MOL     -0.167425
     63 C20         5.8650    2.5110    2.0520 c3        1 MOL     -0.217691
     64 C21         4.8380    3.6610    1.9700 c         1 MOL      0.505236
     65 O12         4.8490    4.4910    2.9660 o         1 MOL     -0.589434
     66 H26         6.0680    0.7630    0.9190 hn        1 MOL      0.243096
     67 H27         6.8310    2.8020    2.4710 h1        1 MOL      0.118997
     68 H28         5.4460    1.7360    2.6900 h1        1 MOL      0.118997
     69 N8          3.9410    3.7680    0.9650 n         1 MOL     -0.330312
     70 C22         2.7300    4.5540    0.8170 c3        1 MOL      0.179401
     71 C23         1.4560    3.6830    0.7210 c         1 MOL      0.401880
     72 O13         1.4080    2.8050   -0.1640 o         1 MOL     -0.467874
     73 C24         2.9180    5.4910   -0.4620 c3        1 MOL      0.453175
     74 C25         1.7840    6.4460   -0.6410 c3        1 MOL     -0.265626
     75 O14         4.0350    6.3340   -0.2460 oh        1 MOL     -0.663877
     76 H29         4.1010    3.0960    0.2180 hn        1 MOL      0.313361
     77 H30         2.6600    5.2220    1.6700 h1        1 MOL      0.021081
     78 H31         3.0270    4.8960   -1.3750 h1        1 MOL     -0.044980
     79 H32         4.1060    7.0310   -0.9080 ho        1 MOL      0.390712
     80 H33         1.7100    7.1150    0.2250 hc        1 MOL      0.047278
     81 H34         1.9710    7.0770   -1.5060 hc        1 MOL      0.047278
     82 H35         0.8390    5.9150   -0.7180 hc        1 MOL      0.047278
     83 N9          0.3480    4.0310    1.4930 n         1 MOL     -0.580961
     84 C26        -0.8230    3.1660    1.5300 c3        1 MOL      0.067148
     85 C27        -1.5730    3.2740    0.2530 c         1 MOL      0.608730
     86 O15        -1.8270    4.4070   -0.2270 o         1 MOL     -0.603554
     87 C28        -1.6580    3.3430    2.8240 c3        1 MOL      0.078921
     88 C29        -0.9650    2.4820    3.9310 c3        1 MOL      0.164811
     89 C30        -3.0470    2.7530    2.6270 c3        1 MOL     -0.244223
     90 C31        -1.4760    2.7470    5.3760 c3        1 MOL     -0.182806
     91 H36         0.3420    4.8920    2.0150 hn        1 MOL      0.321421
     92 H37        -0.4360    2.1490    1.5210 h1        1 MOL      0.050411
     93 H38        -1.6550    4.3970    3.1080 hc        1 MOL      0.010268
     94 H39         0.0990    2.7080    3.8260 hc        1 MOL     -0.047372
     95 H40        -1.0400    1.4180    3.6980 hc        1 MOL     -0.047372
     96 H41        -3.4710    3.3450    1.8160 hc        1 MOL      0.033068
     97 H42        -2.8830    1.7500    2.2470 hc        1 MOL      0.033068
     98 H43        -3.5890    2.8260    3.5740 hc        1 MOL      0.033068
     99 H44        -1.5950    3.8190    5.5560 hc        1 MOL      0.037436
    100 H45        -2.4320    2.2390    5.4820 hc        1 MOL      0.037436
    101 H46        -0.7540    2.3650    6.0940 hc        1 MOL      0.037436
    102 N10        -2.0440    2.1340   -0.2930 n         1 MOL     -0.285200
    103 C32        -2.9420    2.1100   -1.4300 c3        1 MOL     -0.013322
    104 C33        -4.3080    1.6290   -0.8460 c         1 MOL      0.356113
    105 O16        -4.3830    1.0230    0.2130 o         1 MOL     -0.235795
    106 C34        -2.3700    1.1150   -2.5320 c3        1 MOL     -0.190714
    107 C35        -0.9310    1.4620   -2.7870 c         1 MOL      0.682910
    108 O17        -0.0630    0.8870   -2.1000 o         1 MOL     -0.675359
    109 O18        -0.6510    2.2180   -3.7860 o         1 MOL     -0.675359
    110 H47        -1.7720    1.2590    0.1350 hn        1 MOL      0.317422
    111 H48        -3.1230    3.1070   -1.8590 h1        1 MOL      0.086337
    112 H49        -2.9980    1.3080   -3.4050 hc        1 MOL      0.039978
    113 H50        -2.5870    0.0750   -2.2920 hc        1 MOL      0.039978
    114 N11        -5.3870    1.7740   -1.5420 n         1 MOL     -0.537677
    115 C36        -6.6800    1.1430   -1.1540 c3        1 MOL      0.141000
    116 C37        -6.6970   -0.3570   -0.8510 c         1 MOL      0.435492
    117 O19        -7.2750   -0.7610    0.1670 o         1 MOL     -0.500514
    118 C38        -7.8010    1.4110   -2.2340 c3        1 MOL     -0.118738
    119 C39        -9.2560    1.1390   -1.8490 ca        1 MOL      0.044264
    120 C40        -9.6730    1.4220   -0.5530 ca        1 MOL     -0.130682
    121 C41       -10.1710    0.5880   -2.7470 ca        1 MOL     -0.130682
    122 C42       -11.0360    1.2360   -0.1720 ca        1 MOL     -0.081001
    123 C43       -11.4820    0.2680   -2.3750 ca        1 MOL     -0.081001
    124 C44       -11.9220    0.6130   -1.0840 ca        1 MOL     -0.183958
    125 H51        -5.2850    2.3060   -2.3980 hn        1 MOL      0.330398
    126 H52        -6.8630    1.6950   -0.2330 h1        1 MOL      0.111015
    127 H53        -7.4310    0.9750   -3.1590 hc        1 MOL      0.049904
    128 H54        -7.7250    2.4780   -2.4670 hc        1 MOL      0.049904
    129 H55        -8.9910    1.8340    0.1780 ha        1 MOL      0.094340
    130 H56        -9.9550    0.3270   -3.7700 ha        1 MOL      0.094340
    131 H57       -11.4330    1.4690    0.7970 ha        1 MOL      0.105937
    132 H58       -12.1590   -0.1860   -3.0850 ha        1 MOL      0.105937
    133 H59       -12.9040    0.3980   -0.6960 ha        1 MOL      0.120809
    134 N12        -6.0820   -1.2690   -1.6600 n         1 MOL     -0.169303
    135 C45        -5.9240   -2.6130   -1.3010 c3        1 MOL      0.061223
    136 C46        -5.2330   -2.8530    0.1010 c         1 MOL      0.319682
    137 O20        -5.4450   -3.8850    0.5980 o         1 MOL     -0.502426
    138 C47        -5.1480   -3.3930   -2.4100 c3        1 MOL     -0.163459
    139 C48        -4.5280   -2.2130   -3.1600 c3        1 MOL      0.004702
    140 C49        -5.5280   -1.0340   -2.9870 c3        1 MOL      0.047660
    141 H60        -6.9370   -3.0270   -1.3210 h1        1 MOL      0.050589
    142 H61        -4.3820   -4.0730   -2.0280 hc        1 MOL      0.069446
    143 H62        -5.7320   -3.9130   -3.1650 hc        1 MOL      0.069446
    144 H63        -3.5840   -1.8730   -2.7450 hc        1 MOL      0.030826
    145 H64        -4.2940   -2.3490   -4.2160 hc        1 MOL      0.030826
    146 H65        -4.9780   -0.1310   -3.2220 h1        1 MOL      0.010823
    147 H66        -6.2600   -1.1350   -3.7980 h1        1 MOL      0.010823
    148 N13        -4.4510   -1.8910    0.5960 n         1 MOL     -0.007626
    149 C50        -3.7480   -2.0540    1.8910 c3        1 MOL     -0.211910
    150 C51        -4.5780   -1.3160    2.9470 c         1 MOL      0.518974
    151 O21        -4.4990   -1.7280    4.0890 o         1 MOL     -0.576010
    152 C52        -2.4140   -1.3560    1.8650 c3        1 MOL     -0.086928
    153 C53        -1.5560   -1.9890    0.8710 c3        1 MOL      0.086372
    154 C54        -0.3310   -1.2430    0.5090 c         1 MOL      0.469962
    155 O22        -0.0690   -0.1450    1.0230 o         1 MOL     -0.744283
    156 O23         0.4570   -1.7880   -0.2610 o         1 MOL     -0.744283
    157 H67        -4.3500   -1.0970   -0.0110 hn        1 MOL      0.055987
    158 H68        -3.6260   -3.1230    2.0720 h1        1 MOL      0.142485
    159 H69        -1.9420   -1.4430    2.8400 hc        1 MOL      0.102876
    160 H70        -2.6230   -0.3380    1.5140 hc        1 MOL      0.102876
    161 H71        -2.1090   -2.1260   -0.0550 hc        1 MOL      0.029501
    162 H72        -1.3750   -3.0250    1.1820 hc        1 MOL      0.029501
    163 N14        -5.3160   -0.2610    2.6190 n         1 MOL     -0.081765
    164 C55        -6.3500    0.4010    3.4750 c3        1 MOL     -0.241236
    165 H73        -7.3120   -0.0910    3.3270 h1        1 MOL      0.092137
    166 H74        -6.0600    0.3220    4.5220 h1        1 MOL      0.092137
    167 H75        -6.4320    1.4520    3.1980 h1        1 MOL      0.092137
    168 H76        -5.1640    0.2650    1.7740 hn        1 MOL      0.021149
    169 Ca1         2.0240    0.2320   -0.8250 Ca        1 MOL      1.808992
    170 O24         2.2370    0.8540    2.0980 oh        1 MOL     -0.850566
    171 H77         2.5010    1.0970    2.9890 ho        1 MOL      0.407871
    172 H78         1.2830    0.8220    2.1360 ho        1 MOL      0.407871
@<TRIPOS>BOND
     1    1    2 1   
     2    1    4 1   
     3    1    5 1   
     4    1    6 1   
     5    2    3 2   
     6    2    7 1   
     7    7    8 1   
     8    7   15 1   
     9    8    9 1   
    10    8   11 1   
    11    8   16 1   
    12    9   10 2   
    13    9   19 1   
    14   11   12 1   
    15   11   17 1   
    16   11   18 1   
    17   12   13 1   
    18   12   14 1   
    19   19   20 1   
    20   19   24 1   
    21   20   21 1   
    22   20   23 1   
    23   20   25 1   
    24   21   22 2   
    25   21   29 1   
    26   23   26 1   
    27   23   27 1   
    28   23   28 1   
    29   29   30 1   
    30   29   37 1   
    31   30   31 1   
    32   30   33 1   
    33   30   38 1   
    34   31   32 2   
    35   31   41 1   
    36   33   34 1   
    37   33   39 1   
    38   33   40 1   
    39   34   35 1   
    40   34   36 1   
    41   41   42 1   
    42   41   45 1   
    43   42   43 1   
    44   42   46 1   
    45   42   47 1   
    46   43   44 2   
    47   43   48 1   
    48   48   49 1   
    49   48   56 1   
    50   49   50 1   
    51   49   52 1   
    52   49   57 1   
    53   50   51 2   
    54   50   62 1   
    55   52   53 1   
    56   52   58 1   
    57   52   59 1   
    58   53   54 1   
    59   53   55 2   
    60   54   60 1   
    61   54   61 1   
    62   62   63 1   
    63   62   66 1   
    64   63   64 1   
    65   63   67 1   
    66   63   68 1   
    67   64   65 2   
    68   64   69 1   
    69   69   70 1   
    70   69   76 1   
    71   70   71 1   
    72   70   73 1   
    73   70   77 1   
    74   71   72 2   
    75   71   83 1   
    76   73   74 1   
    77   73   75 1   
    78   73   78 1   
    79   74   80 1   
    80   74   81 1   
    81   74   82 1   
    82   75   79 1   
    83   83   84 1   
    84   83   91 1   
    85   84   85 1   
    86   84   87 1   
    87   84   92 1   
    88   85   86 2   
    89   85  102 1   
    90   87   88 1   
    91   87   89 1   
    92   87   93 1   
    93   88   90 1   
    94   88   94 1   
    95   88   95 1   
    96   89   96 1   
    97   89   97 1   
    98   89   98 1   
    99   90   99 1   
   100   90  100 1   
   101   90  101 1   
   102  102  103 1   
   103  102  110 1   
   104  103  104 1   
   105  103  106 1   
   106  103  111 1   
   107  104  105 2   
   108  104  114 1   
   109  106  107 1   
   110  106  112 1   
   111  106  113 1   
   112  107  108 1   
   113  107  109 1   
   114  114  115 1   
   115  114  125 1   
   116  115  116 1   
   117  115  118 1   
   118  115  126 1   
   119  116  117 2   
   120  116  134 1   
   121  118  119 1   
   122  118  127 1   
   123  118  128 1   
   124  119  120 ar  
   125  119  121 ar  
   126  120  122 ar  
   127  120  129 1   
   128  121  123 ar  
   129  121  130 1   
   130  122  124 ar  
   131  122  131 1   
   132  123  124 ar  
   133  123  132 1   
   134  124  133 1   
   135  134  135 1   
   136  134  140 1   
   137  135  136 1   
   138  135  138 1   
   139  135  141 1   
   140  136  137 2   
   141  136  148 1   
   142  138  139 1   
   143  138  142 1   
   144  138  143 1   
   145  139  140 1   
   146  139  144 1   
   147  139  145 1   
   148  140  146 1   
   149  140  147 1   
   150  148  149 1   
   151  148  157 1   
   152  149  150 1   
   153  149  152 1   
   154  149  158 1   
   155  150  151 2   
   156  150  163 1   
   157  152  153 1   
   158  152  159 1   
   159  152  160 1   
   160  153  154 1   
   161  153  161 1   
   162  153  162 1   
   163  154  155 1   
   164  154  156 1   
   165  163  164 1   
   166  163  168 1   
   167  164  165 1   
   168  164  166 1   
   169  164  167 1   
   170  170  171 1   
   171  170  172 1   
@<TRIPOS>SUBSTRUCTURE
     1 MOL         1 TEMP              0 ****  ****    0 ROOT
