@<TRIPOS>MOLECULE
MOL
  175   173     1     0     0
SMALL
resp


@<TRIPOS>ATOM
      1 C1          0.3550    3.8960    5.2390 c3        1 MOL     -0.326601
      2 C2         -0.3640    3.9740    3.9550 c         1 MOL      0.736650
      3 O1          0.2120    4.1680    2.9150 o         1 MOL     -0.552989
      4 H1          0.1110    4.7670    5.8460 hc        1 MOL      0.078315
      5 H2          0.0560    2.9900    5.7680 hc        1 MOL      0.078315
      6 H3          1.4290    3.8710    5.0540 hc        1 MOL      0.078315
      7 N1         -1.7360    3.8420    3.9560 n         1 MOL     -0.708094
      8 C3         -2.4800    3.4250    2.7110 c3        1 MOL      0.198694
      9 C4         -2.8930    4.6260    1.8480 c         1 MOL      0.533156
     10 O2         -3.6240    5.5480    2.2790 o         1 MOL     -0.585949
     11 C5         -3.7130    2.6280    3.2040 c3        1 MOL     -0.253443
     12 C6         -4.3810    1.8090    2.1070 c         1 MOL      0.811117
     13 O3         -5.3700    1.1390    2.4440 o         1 MOL     -0.721660
     14 O4         -3.8480    1.6200    0.9590 o         1 MOL     -0.721660
     15 H4         -2.2560    3.7210    4.8080 hn        1 MOL      0.331312
     16 H5         -1.8640    2.7010    2.1780 h1        1 MOL      0.083597
     17 H6         -4.4220    3.3680    3.5780 hc        1 MOL      0.039427
     18 H7         -3.4750    1.9080    3.9940 hc        1 MOL      0.039427
     19 N2         -2.3610    4.6240    0.6130 n         1 MOL     -0.358216
     20 C7         -2.5410    5.6440   -0.4390 c3        1 MOL      0.473394
     21 C8         -3.2720    5.0700   -1.7120 c         1 MOL      0.239335
     22 O5         -3.1380    5.6340   -2.8170 o         1 MOL     -0.526239
     23 C9         -1.2050    6.2950   -0.7850 c3        1 MOL     -0.364359
     24 H8         -1.6600    3.9220    0.4370 hn        1 MOL      0.224193
     25 H9         -3.1870    6.3910    0.0120 h1        1 MOL     -0.043840
     26 H10        -0.7970    6.5540    0.1840 hc        1 MOL      0.082429
     27 H11        -0.5090    5.5920   -1.2460 hc        1 MOL      0.082429
     28 H12        -1.5030    7.1670   -1.3740 hc        1 MOL      0.082429
     29 N3         -3.9110    3.9220   -1.6250 n         1 MOL     -0.054251
     30 C10        -4.7350    3.3660   -2.6420 c3        1 MOL      0.031272
     31 C11        -5.9940    2.6620   -2.0740 c         1 MOL      0.339366
     32 O6         -6.9340    2.3840   -2.8510 o         1 MOL     -0.541817
     33 C12        -3.9840    2.4280   -3.5490 c3        1 MOL     -0.187178
     34 C13        -3.1410    1.4380   -2.7090 c         1 MOL      0.635587
     35 O7         -1.8980    1.3450   -2.8510 o         1 MOL     -0.666357
     36 O8         -3.7900    0.6990   -1.9200 o         1 MOL     -0.666357
     37 H13        -3.9730    3.6140   -0.6630 hn        1 MOL     -0.008426
     38 H14        -5.0560    4.1490   -3.3220 h1        1 MOL      0.074052
     39 H15        -3.2790    3.0020   -4.1480 hc        1 MOL      0.068583
     40 H16        -4.6720    1.8170   -4.1400 hc        1 MOL      0.068583
     41 N4         -6.1370    2.2410   -0.8260 n         1 MOL     -0.151103
     42 C14        -7.3260    1.5250   -0.3250 c3        1 MOL     -0.416624
     43 C15        -7.3440    0.1000   -0.8540 c         1 MOL      0.702447
     44 O9         -8.3000   -0.6510   -0.5930 o         1 MOL     -0.652897
     45 H17        -5.3220    2.4360   -0.2650 hn        1 MOL      0.210479
     46 H18        -8.1530    2.1560   -0.6620 h1        1 MOL      0.176543
     47 H19        -7.3470    1.4700    0.7570 h1        1 MOL      0.176543
     48 N5         -6.2920   -0.4430   -1.4600 n         1 MOL     -0.482060
     49 C16        -6.2740   -1.7430   -2.0450 c3        1 MOL      0.320352
     50 C17        -6.3140   -2.8810   -1.0470 c         1 MOL      0.339202
     51 O10        -6.3980   -4.0600   -1.4210 o         1 MOL     -0.525464
     52 C18        -5.1730   -1.8790   -3.0300 c3        1 MOL     -0.154636
     53 C19        -3.6820   -2.0670   -2.5020 c         1 MOL      0.572867
     54 N6         -2.7910   -2.0820   -3.4310 n         1 MOL     -0.468244
     55 O11        -3.2840   -2.1240   -1.3440 o         1 MOL     -0.633379
     56 H20        -5.5350    0.1890   -1.7060 hn        1 MOL      0.228492
     57 H21        -7.1850   -1.9140   -2.6140 h1        1 MOL      0.022824
     58 H22        -5.2590   -1.1190   -3.8110 hc        1 MOL      0.034348
     59 H23        -5.4090   -2.7930   -3.5690 hc        1 MOL      0.034348
     60 H24        -3.0560   -2.1230   -4.4030 hn        1 MOL      0.273881
     61 H25        -1.8250   -2.1720   -3.1430 hn        1 MOL      0.273881
     62 N7         -6.3200   -2.6530    0.2860 n         1 MOL     -0.155099
     63 C20        -6.2740   -3.6750    1.3590 c3        1 MOL     -0.246426
     64 C21        -4.9310   -4.3920    1.5360 c         1 MOL      0.495571
     65 O12        -4.9120   -5.5200    2.0700 o         1 MOL     -0.593921
     66 H26        -6.3240   -1.7040    0.6220 hn        1 MOL      0.241782
     67 H27        -7.0220   -4.4250    1.1060 h1        1 MOL      0.121620
     68 H28        -6.5700   -3.1760    2.2750 h1        1 MOL      0.121620
     69 N8         -3.8130   -3.9150    1.0110 n         1 MOL     -0.046592
     70 C22        -2.5040   -4.5190    1.0670 c3        1 MOL     -0.047520
     71 C23        -1.3390   -3.5470    1.1440 c         1 MOL      0.391589
     72 O13        -1.5080   -2.3840    0.8760 o         1 MOL     -0.353213
     73 C24        -2.1300   -5.4490   -0.1410 c3        1 MOL      0.641763
     74 C25        -2.6310   -6.8060   -0.1100 c3        1 MOL     -0.599612
     75 O14        -2.4820   -4.8970   -1.4200 oh        1 MOL     -0.602883
     76 H29        -3.7480   -2.9700    0.6760 hn        1 MOL      0.006351
     77 H30        -2.3800   -5.1660    1.9380 h1        1 MOL      0.031102
     78 H31        -1.0500   -5.5430   -0.1030 h1        1 MOL     -0.073564
     79 H32        -2.4990   -3.9680   -1.1880 ho        1 MOL      0.302107
     80 H33        -1.9900   -7.3540   -0.8050 hc        1 MOL      0.135121
     81 H34        -2.5900   -7.1310    0.9320 hc        1 MOL      0.135121
     82 H35        -3.6630   -6.8200   -0.4670 hc        1 MOL      0.135121
     83 N9         -0.1810   -3.9850    1.5830 n         1 MOL     -0.475318
     84 C26         0.9870   -3.1110    1.5800 c3        1 MOL     -0.185431
     85 C27         1.7920   -3.2980    0.2590 c         1 MOL      0.601852
     86 O15         2.4110   -4.3290   -0.0670 o         1 MOL     -0.597694
     87 C28         1.8800   -3.4300    2.7920 c3        1 MOL      0.240487
     88 C29         1.1690   -3.6360    4.1390 c3        1 MOL      0.092310
     89 C30         2.7720   -2.1730    2.8300 c3        1 MOL     -0.185441
     90 C31         2.0450   -4.0420    5.3970 c3        1 MOL     -0.162756
     91 H36        -0.0780   -4.8950    2.0160 hn        1 MOL      0.279895
     92 H37         0.7010   -2.0670    1.6930 h1        1 MOL      0.158413
     93 H38         2.5800   -4.2380    2.6220 hc        1 MOL     -0.041528
     94 H39         0.3950   -4.4110    4.1140 hc        1 MOL     -0.022281
     95 H40         0.6720   -2.6780    4.2980 hc        1 MOL     -0.022281
     96 H41         3.3720   -2.0770    1.9280 hc        1 MOL      0.018255
     97 H42         2.2050   -1.2750    3.0980 hc        1 MOL      0.018255
     98 H43         3.5240   -2.2930    3.6200 hc        1 MOL      0.018255
     99 H44         2.1360   -5.1260    5.4690 hc        1 MOL      0.031421
    100 H45         3.0260   -3.5890    5.2740 hc        1 MOL      0.031421
    101 H46         1.5250   -3.7470    6.3120 hc        1 MOL      0.031421
    102 N10         1.9090   -2.1620   -0.4670 n         1 MOL     -0.282325
    103 C32         2.7910   -1.9830   -1.6200 c3        1 MOL      0.029335
    104 C33         4.1380   -1.4010   -1.1200 c         1 MOL      0.522379
    105 O16         4.2280   -0.7080   -0.0980 o         1 MOL     -0.286209
    106 C34         1.9650   -1.1060   -2.5460 c3        1 MOL     -0.252724
    107 C35         0.4070   -1.4520   -2.6120 c         1 MOL      0.720416
    108 O17        -0.3480   -1.0310   -1.6870 o         1 MOL     -0.657350
    109 O18        -0.0400   -2.1320   -3.5580 o         1 MOL     -0.657350
    110 H47         1.3920   -1.3800   -0.0960 hn        1 MOL      0.200258
    111 H48         2.8690   -2.9370   -2.1510 h1        1 MOL      0.087668
    112 H49         2.3350   -1.0430   -3.5700 hc        1 MOL      0.055262
    113 H50         2.1030   -0.0910   -2.1820 hc        1 MOL      0.055262
    114 N11         5.2050   -1.7260   -1.8030 n         1 MOL     -0.759660
    115 C36         6.5710   -1.3380   -1.3490 c3        1 MOL      0.471084
    116 C37         6.6770    0.1620   -1.0820 c         1 MOL      0.202332
    117 O19         7.2960    0.4280   -0.0840 o         1 MOL     -0.413379
    118 C38         7.7010   -1.8030   -2.2860 c3        1 MOL     -0.268874
    119 C39         9.0900   -1.4500   -1.7500 ca        1 MOL     -0.038114
    120 C40         9.6560   -2.0610   -0.5710 ca        1 MOL     -0.057513
    121 C41         9.7880   -0.4290   -2.3950 ca        1 MOL     -0.057513
    122 C42        10.9840   -1.7960   -0.2190 ca        1 MOL     -0.145815
    123 C43        11.1130   -0.1620   -2.0530 ca        1 MOL     -0.145815
    124 C44        11.6810   -0.8270   -0.9570 ca        1 MOL     -0.093010
    125 H51         5.1100   -2.4100   -2.5340 hn        1 MOL      0.341675
    126 H52         6.6910   -1.8300   -0.3790 h1        1 MOL      0.056243
    127 H53         7.6070   -1.4110   -3.3010 hc        1 MOL      0.093075
    128 H54         7.7140   -2.8940   -2.3070 hc        1 MOL      0.093075
    129 H55         9.0800   -2.8780   -0.1680 ha        1 MOL      0.093270
    130 H56         9.4310    0.0690   -3.2870 ha        1 MOL      0.093270
    131 H57        11.4430   -2.4190    0.5360 ha        1 MOL      0.114991
    132 H58        11.6340    0.5460   -2.6780 ha        1 MOL      0.114991
    133 H59        12.6970   -0.6400   -0.6430 ha        1 MOL      0.094934
    134 N12         6.1090    1.1290   -1.8870 n         1 MOL     -0.051350
    135 C45         6.1230    2.5790   -1.5760 c3        1 MOL      0.014812
    136 C46         5.5760    2.8390   -0.1470 c         1 MOL      0.307217
    137 O20         6.0660    3.7930    0.4550 o         1 MOL     -0.517795
    138 C47         5.2300    3.2860   -2.6020 c3        1 MOL     -0.089836
    139 C48         5.4300    2.4290   -3.7850 c3        1 MOL     -0.022968
    140 C49         5.4960    0.9770   -3.2080 c3        1 MOL     -0.019156
    141 H60         7.1340    2.9550   -1.7410 h1        1 MOL      0.063495
    142 H61         4.1600    3.2210   -2.3800 hc        1 MOL      0.064704
    143 H62         5.4160    4.3590   -2.6910 hc        1 MOL      0.064704
    144 H63         4.6480    2.4200   -4.5410 hc        1 MOL      0.022822
    145 H64         6.3250    2.6320   -4.3740 hc        1 MOL      0.022822
    146 H65         4.4860    0.5650   -3.1120 h1        1 MOL      0.038507
    147 H66         6.1200    0.4150   -3.9010 h1        1 MOL      0.038507
    148 N13         4.6560    2.0190    0.3680 n         1 MOL     -0.011013
    149 C50         4.1680    2.2150    1.7140 c3        1 MOL     -0.205619
    150 C51         5.0790    1.5140    2.7350 c         1 MOL      0.516764
    151 O21         5.1300    1.9540    3.8690 o         1 MOL     -0.568107
    152 C52         2.7030    1.7140    1.6370 c3        1 MOL     -0.002930
    153 C53         1.7100    2.3760    0.6690 c3        1 MOL     -0.110641
    154 C54         0.3290    1.7050    0.6860 c         1 MOL      0.654726
    155 O22        -0.6910    2.2300    0.1730 o         1 MOL     -0.712149
    156 O23         0.1560    0.5480    1.1200 o         1 MOL     -0.712149
    157 H67         4.4650    1.1550   -0.1160 hn        1 MOL      0.101319
    158 H68         4.1470    3.2720    1.9770 h1        1 MOL      0.138139
    159 H69         2.1710    1.6720    2.6000 hc        1 MOL      0.023145
    160 H70         2.7660    0.6430    1.4320 hc        1 MOL      0.023145
    161 H71         2.1350    2.2670   -0.3260 hc        1 MOL      0.046875
    162 H72         1.6160    3.4420    0.9140 hc        1 MOL      0.046875
    163 N14         5.7810    0.4180    2.4470 n         1 MOL     -0.074622
    164 C55         6.7150   -0.1540    3.3310 c3        1 MOL     -0.199448
    165 H73         7.3180   -0.8890    2.7960 h1        1 MOL      0.075477
    166 H74         7.3640    0.6250    3.7300 h1        1 MOL      0.075477
    167 H75         6.1880   -0.6440    4.1500 h1        1 MOL      0.075477
    168 H76         5.7170    0.1490    1.4710 hn        1 MOL      0.046992
    169 Ca1        -2.1340    0.0270   -0.1800 Ca        1 MOL      1.678754
    170 O24        -1.7060   -0.1380    2.8750 oh        1 MOL     -0.844284
    171 H77        -0.8070    0.0520    2.5900 ho        1 MOL      0.412022
    172 H78        -1.7110    0.0630    3.8100 ho        1 MOL      0.412022
    173 O25        -3.8460   -1.2450    1.7670 oh        1 MOL     -0.844284
    174 H79        -3.2820   -0.9250    2.4710 ho        1 MOL      0.412022
    175 H80        -4.7060   -0.8840    1.9630 ho        1 MOL      0.412022
@<TRIPOS>BOND
     1    1    2 1   
     2    1    4 1   
     3    1    5 1   
     4    1    6 1   
     5    2    3 2   
     6    2    7 1   
     7    7    8 1   
     8    7   15 1   
     9    8    9 1   
    10    8   11 1   
    11    8   16 1   
    12    9   10 2   
    13    9   19 1   
    14   11   12 1   
    15   11   17 1   
    16   11   18 1   
    17   12   13 1   
    18   12   14 1   
    19   19   20 1   
    20   19   24 1   
    21   20   21 1   
    22   20   23 1   
    23   20   25 1   
    24   21   22 2   
    25   21   29 1   
    26   23   26 1   
    27   23   27 1   
    28   23   28 1   
    29   29   30 1   
    30   29   37 1   
    31   30   31 1   
    32   30   33 1   
    33   30   38 1   
    34   31   32 2   
    35   31   41 1   
    36   33   34 1   
    37   33   39 1   
    38   33   40 1   
    39   34   35 1   
    40   34   36 1   
    41   41   42 1   
    42   41   45 1   
    43   42   43 1   
    44   42   46 1   
    45   42   47 1   
    46   43   44 2   
    47   43   48 1   
    48   48   49 1   
    49   48   56 1   
    50   49   50 1   
    51   49   52 1   
    52   49   57 1   
    53   50   51 2   
    54   50   62 1   
    55   52   53 1   
    56   52   58 1   
    57   52   59 1   
    58   53   54 1   
    59   53   55 2   
    60   54   60 1   
    61   54   61 1   
    62   62   63 1   
    63   62   66 1   
    64   63   64 1   
    65   63   67 1   
    66   63   68 1   
    67   64   65 2   
    68   64   69 1   
    69   69   70 1   
    70   69   76 1   
    71   70   71 1   
    72   70   73 1   
    73   70   77 1   
    74   71   72 2   
    75   71   83 1   
    76   73   74 1   
    77   73   75 1   
    78   73   78 1   
    79   74   80 1   
    80   74   81 1   
    81   74   82 1   
    82   75   79 1   
    83   83   84 1   
    84   83   91 1   
    85   84   85 1   
    86   84   87 1   
    87   84   92 1   
    88   85   86 2   
    89   85  102 1   
    90   87   88 1   
    91   87   89 1   
    92   87   93 1   
    93   88   90 1   
    94   88   94 1   
    95   88   95 1   
    96   89   96 1   
    97   89   97 1   
    98   89   98 1   
    99   90   99 1   
   100   90  100 1   
   101   90  101 1   
   102  102  103 1   
   103  102  110 1   
   104  103  104 1   
   105  103  106 1   
   106  103  111 1   
   107  104  105 2   
   108  104  114 1   
   109  106  107 1   
   110  106  112 1   
   111  106  113 1   
   112  107  108 1   
   113  107  109 1   
   114  114  115 1   
   115  114  125 1   
   116  115  116 1   
   117  115  118 1   
   118  115  126 1   
   119  116  117 2   
   120  116  134 1   
   121  118  119 1   
   122  118  127 1   
   123  118  128 1   
   124  119  120 ar  
   125  119  121 ar  
   126  120  122 ar  
   127  120  129 1   
   128  121  123 ar  
   129  121  130 1   
   130  122  124 ar  
   131  122  131 1   
   132  123  124 ar  
   133  123  132 1   
   134  124  133 1   
   135  134  135 1   
   136  134  140 1   
   137  135  136 1   
   138  135  138 1   
   139  135  141 1   
   140  136  137 2   
   141  136  148 1   
   142  138  139 1   
   143  138  142 1   
   144  138  143 1   
   145  139  140 1   
   146  139  144 1   
   147  139  145 1   
   148  140  146 1   
   149  140  147 1   
   150  148  149 1   
   151  148  157 1   
   152  149  150 1   
   153  149  152 1   
   154  149  158 1   
   155  150  151 2   
   156  150  163 1   
   157  152  153 1   
   158  152  159 1   
   159  152  160 1   
   160  153  154 1   
   161  153  161 1   
   162  153  162 1   
   163  154  155 1   
   164  154  156 1   
   165  163  164 1   
   166  163  168 1   
   167  164  165 1   
   168  164  166 1   
   169  164  167 1   
   170  170  171 1   
   171  170  172 1   
   172  173  174 1   
   173  173  175 1   
@<TRIPOS>SUBSTRUCTURE
     1 MOL         1 TEMP              0 ****  ****    0 ROOT
