@<TRIPOS>MOLECULE
MOL
  189   185     1     0     0
SMALL
resp


@<TRIPOS>ATOM
      1 C1          0.6810    2.1620    5.5650 c3        1 MOL     -0.259761
      2 C2         -0.1260    1.9810    4.2570 c         1 MOL      0.718027
      3 O1          0.3410    2.3200    3.1740 o         1 MOL     -0.638730
      4 H1          0.2430    2.9700    6.1520 hc        1 MOL      0.068611
      5 H2          0.6510    1.2380    6.1430 hc        1 MOL      0.068611
      6 H3          1.7150    2.4080    5.3240 hc        1 MOL      0.068611
      7 N1         -1.3030    1.3860    4.2780 n         1 MOL     -0.579342
      8 C3         -2.0850    1.2770    3.0210 c3        1 MOL      0.165101
      9 C4         -2.5170    2.6430    2.4660 c         1 MOL      0.455710
     10 O2         -3.3180    3.4050    3.0740 o         1 MOL     -0.560057
     11 C5         -3.2390    0.2550    3.1300 c3        1 MOL     -0.277697
     12 C6         -3.9150   -0.1330    1.7850 c         1 MOL      0.855770
     13 O3         -3.4330    0.1950    0.6770 o         1 MOL     -0.733849
     14 O4         -5.0270   -0.6670    1.7940 o         1 MOL     -0.733849
     15 H4         -1.5770    0.9260    5.1340 hn        1 MOL      0.318247
     16 H5         -1.4260    0.7970    2.2880 h1        1 MOL     -0.053019
     17 H6         -4.0360    0.5580    3.8060 hc        1 MOL      0.063329
     18 H7         -2.8190   -0.6880    3.4650 hc        1 MOL      0.063329
     19 N2         -1.8480    3.1150    1.3990 n         1 MOL     -0.229503
     20 C7         -1.8020    4.5300    0.9170 c3        1 MOL      0.130639
     21 C8         -2.8850    4.7360   -0.1790 c         1 MOL      0.476746
     22 O5         -3.3870    5.8410   -0.2280 o         1 MOL     -0.585131
     23 C9         -0.3710    4.9480    0.5620 c3        1 MOL     -0.118222
     24 C10        -0.2710    6.4580    0.1100 c3        1 MOL      0.096339
     25 C11        -0.4900    7.1720    1.4260 c3        1 MOL     -0.294128
     26 C12        -0.2570    8.6830    1.1450 c3        1 MOL      0.090156
     27 N3         -0.7150    9.5880    2.2100 n4        1 MOL     -0.343739
     28 H8         -1.0110    2.5630    1.2550 hn        1 MOL      0.336051
     29 H9         -2.0790    5.2470    1.6760 h1        1 MOL     -0.017920
     30 H10         0.0150    4.3300   -0.2500 hc        1 MOL      0.025778
     31 H11         0.2750    4.7830    1.4260 hc        1 MOL      0.025778
     32 H12        -0.8770    6.8270   -0.7140 hc        1 MOL      0.012308
     33 H13         0.6980    6.7690   -0.2770 hc        1 MOL      0.012308
     34 H14         0.2710    6.8520    2.1380 hc        1 MOL      0.141765
     35 H15        -1.5560    7.1250    1.6370 hc        1 MOL      0.141765
     36 H16        -0.8380    8.9480    0.2530 hx        1 MOL      0.066503
     37 H17         0.7920    8.8490    0.9320 hx        1 MOL      0.066503
     38 H18        -0.2310    9.4220    3.0750 hn        1 MOL      0.318905
     39 H19        -0.4610   10.5260    1.9450 hn        1 MOL      0.318905
     40 H20        -1.7060    9.4960    2.4140 hn        1 MOL      0.318905
     41 N4         -3.2160    3.7520   -0.9810 n         1 MOL     -0.394932
     42 C13        -4.1630    3.9980   -2.0560 c3        1 MOL      0.297857
     43 C14        -5.5460    3.2990   -1.6920 c         1 MOL      0.325341
     44 O6         -6.5210    3.6620   -2.3670 o         1 MOL     -0.525054
     45 C15        -3.6200    3.6150   -3.3900 c3        1 MOL     -0.206768
     46 C16        -3.1670    2.1760   -3.5410 c         1 MOL      0.758094
     47 O7         -3.0990    1.4170   -2.5620 o         1 MOL     -0.696171
     48 O8         -2.6710    1.8080   -4.6350 o         1 MOL     -0.696171
     49 H21        -2.7890    2.8400   -0.9360 hn        1 MOL      0.215530
     50 H22        -4.4090    5.0500   -2.2050 h1        1 MOL      0.023140
     51 H23        -2.7090    4.1720   -3.6390 hc        1 MOL      0.032439
     52 H24        -4.3660    3.8850   -4.1400 hc        1 MOL      0.032439
     53 N5         -5.5450    2.4190   -0.6750 n         1 MOL     -0.131111
     54 C17        -6.7920    1.9460   -0.0700 c3        1 MOL     -0.276248
     55 C18        -7.2160    0.5610   -0.5290 c         1 MOL      0.558347
     56 O9         -8.3480    0.1100   -0.2740 o         1 MOL     -0.600313
     57 H25        -4.6360    2.1480   -0.3380 hn        1 MOL      0.137668
     58 H26        -7.6220    2.6130   -0.3110 h1        1 MOL      0.141500
     59 H27        -6.6800    1.9860    1.0150 h1        1 MOL      0.141500
     60 N6         -6.4900   -0.0870   -1.4530 n         1 MOL     -0.221492
     61 C19        -6.9230   -1.3220   -2.0230 c3        1 MOL     -0.147988
     62 C20        -6.9270   -2.4730   -1.0650 c         1 MOL      0.446883
     63 O10        -7.2790   -3.5820   -1.4850 o         1 MOL     -0.546645
     64 C21        -6.0820   -1.6180   -3.2820 c3        1 MOL     -0.164559
     65 C22        -4.5730   -1.8980   -3.0220 c         1 MOL      0.683562
     66 O11        -3.9610   -2.3110   -4.0150 o         1 MOL     -0.636079
     67 O12        -4.0690   -1.5350   -1.9570 o         1 MOL     -0.636079
     68 H28        -5.5600    0.2520   -1.6700 hn        1 MOL      0.183841
     69 H29        -7.9330   -1.1890   -2.4080 h1        1 MOL      0.135989
     70 H30        -6.2610   -0.7940   -3.9750 hc        1 MOL      0.070730
     71 H31        -6.4960   -2.4460   -3.8570 hc        1 MOL      0.070730
     72 N7         -6.5170   -2.4020    0.2510 n         1 MOL     -0.131399
     73 C23        -6.6610   -3.5080    1.1460 c3        1 MOL     -0.133150
     74 C24        -5.4000   -4.3700    1.1720 c         1 MOL      0.642395
     75 O13        -5.5420   -5.4840    1.6120 o         1 MOL     -0.590449
     76 H32        -6.1070   -1.5090    0.5100 hn        1 MOL      0.256846
     77 H33        -7.5580   -4.0930    0.9480 h1        1 MOL      0.070406
     78 H34        -6.6700   -3.0730    2.1540 h1        1 MOL      0.070406
     79 N8         -4.1910   -3.9200    0.7050 n         1 MOL     -0.224307
     80 C25        -2.9110   -4.5860    0.8190 c3        1 MOL     -0.017043
     81 C26        -1.7220   -3.6240    0.9800 c         1 MOL      0.587208
     82 O14        -1.8350   -2.4010    0.5810 o         1 MOL     -0.604253
     83 C27        -2.5690   -5.5320   -0.4180 c3        1 MOL      0.337815
     84 C28        -3.2210   -6.9120   -0.1900 c3        1 MOL     -0.492529
     85 O15        -3.1840   -5.0240   -1.5540 oh        1 MOL     -0.514542
     86 H35        -4.1890   -2.9410    0.4530 hn        1 MOL      0.108995
     87 H36        -2.9070   -5.1210    1.7670 h1        1 MOL      0.039248
     88 H37        -1.4850   -5.5600   -0.5180 h1        1 MOL     -0.015707
     89 H38        -2.7100   -5.5280   -2.2190 ho        1 MOL      0.354686
     90 H39        -2.9190   -7.4520   -1.0870 hc        1 MOL      0.123284
     91 H40        -2.6630   -7.4960    0.5430 hc        1 MOL      0.123284
     92 H41        -4.2910   -6.7270   -0.1000 hc        1 MOL      0.123284
     93 N9         -0.5290   -4.0290    1.4830 n         1 MOL     -0.557172
     94 C29         0.6970   -3.2060    1.8510 c3        1 MOL     -0.012935
     95 C30         1.7700   -3.6030    0.8430 c         1 MOL      0.477986
     96 O16         2.1880   -4.7560    0.8730 o         1 MOL     -0.555611
     97 C31         1.0610   -3.3400    3.3290 c3        1 MOL      0.139062
     98 C32         0.0240   -2.4790    4.0380 c3        1 MOL      0.018794
     99 C33         2.4870   -2.7860    3.6770 c3        1 MOL     -0.336048
    100 C34        -0.0500   -2.7400    5.5550 c3        1 MOL     -0.320510
    101 H42        -0.3580   -5.0180    1.5970 hn        1 MOL      0.315219
    102 H43         0.6850   -2.1360    1.6490 h1        1 MOL      0.083773
    103 H44         0.9090   -4.3920    3.5570 hc        1 MOL      0.025979
    104 H45        -0.9960   -2.6660    3.7090 hc        1 MOL      0.064851
    105 H46         0.3090   -1.4340    3.9070 hc        1 MOL      0.064851
    106 H47         2.5250   -1.8070    3.2020 hc        1 MOL      0.071457
    107 H48         2.6320   -2.7770    4.7630 hc        1 MOL      0.071457
    108 H49         3.1980   -3.3900    3.1280 hc        1 MOL      0.071457
    109 H50        -0.3430   -3.7870    5.6390 hc        1 MOL      0.076812
    110 H51         0.9300   -2.6170    6.0080 hc        1 MOL      0.076812
    111 H52        -0.6870   -2.1220    6.2020 hc        1 MOL      0.076812
    112 N10         2.4300   -2.7650    0.0130 n         1 MOL     -0.144318
    113 C35         3.5610   -3.1380   -0.8730 c3        1 MOL     -0.044636
    114 C36         4.8460   -2.8690   -0.0410 c         1 MOL      0.516761
    115 O17         4.8680   -2.1820    0.9630 o         1 MOL     -0.409732
    116 C37         3.5540   -2.2570   -2.1550 c3        1 MOL      0.170662
    117 C38         2.2840   -2.0320   -3.0050 c3        1 MOL     -0.391136
    118 O18         4.0190   -0.9210   -1.9890 oh        1 MOL     -0.485486
    119 H53         2.0640   -1.8380   -0.1470 hn        1 MOL      0.191289
    120 H54         3.5960   -4.2180   -1.0600 h1        1 MOL      0.071628
    121 H55         4.2570   -2.7290   -2.8400 h1        1 MOL      0.019195
    122 H56         3.5230   -0.4130   -2.6350 ho        1 MOL      0.381845
    123 H57         2.5810   -1.4590   -3.8800 hc        1 MOL      0.120799
    124 H58         2.0160   -3.0500   -3.2950 hc        1 MOL      0.120799
    125 H59         1.4570   -1.7110   -2.3790 hc        1 MOL      0.120799
    126 N11         6.0120   -3.3380   -0.5420 n         1 MOL     -0.415159
    127 C39         7.2800   -2.8550   -0.0040 c3        1 MOL     -0.135351
    128 C40         7.4560   -1.3050    0.0730 c         1 MOL      0.455668
    129 O19         8.0540   -0.9150    1.0680 o         1 MOL     -0.508421
    130 C41         8.3820   -3.3050   -0.9320 c3        1 MOL      0.216016
    131 C42         8.7370   -4.7800   -0.8000 c3        1 MOL     -0.265851
    132 O20         8.2320   -3.1170   -2.2740 oh        1 MOL     -0.637696
    133 H60         5.9970   -3.8280   -1.4250 hn        1 MOL      0.302403
    134 H61         7.3800   -3.2900    0.9920 h1        1 MOL      0.165176
    135 H62         9.2790   -2.7740   -0.6460 h1        1 MOL      0.058343
    136 H63         8.9050   -3.5650   -2.7860 ho        1 MOL      0.426609
    137 H64         8.0060   -5.4320   -1.2760 hc        1 MOL      0.076602
    138 H65         9.7060   -5.0900   -1.2040 hc        1 MOL      0.076602
    139 H66         8.8780   -5.0470    0.2510 hc        1 MOL      0.076602
    140 N12         7.0200   -0.5030   -0.8870 n         1 MOL     -0.261801
    141 C43         7.0810    0.9570   -0.9170 c3        1 MOL     -0.053624
    142 C44         6.0890    1.5340   -0.0110 c         1 MOL      0.282661
    143 O21         6.3510    2.5550    0.6740 o         1 MOL     -0.529804
    144 C45         6.6710    1.4340   -2.3360 c3        1 MOL     -0.054626
    145 C46         6.8120    2.9070   -2.5660 c3        1 MOL      0.085273
    146 C47         6.4510    3.3560   -4.0240 c3        1 MOL     -0.076279
    147 C48         7.4990    2.9060   -5.0570 c3        1 MOL     -0.041609
    148 N13         8.7830    3.3990   -4.8010 n4        1 MOL     -0.348142
    149 H67         6.4970   -0.8980   -1.6570 hn        1 MOL      0.190919
    150 H68         8.0850    1.3000   -0.6730 h1        1 MOL      0.137522
    151 H69         5.6730    1.1090   -2.6050 hc        1 MOL      0.021088
    152 H70         7.3720    0.9400   -3.0090 hc        1 MOL      0.021088
    153 H71         7.8710    3.0980   -2.3990 hc        1 MOL      0.003487
    154 H72         6.2270    3.4780   -1.8330 hc        1 MOL      0.003487
    155 H73         6.4010    4.4420   -4.0080 hc        1 MOL      0.062148
    156 H74         5.4780    3.0480   -4.4040 hc        1 MOL      0.062148
    157 H75         7.2260    3.1520   -6.0860 hx        1 MOL      0.102039
    158 H76         7.4580    1.8260   -5.1300 hx        1 MOL      0.102039
    159 H77         8.7710    4.4100   -4.7270 hn        1 MOL      0.290046
    160 H78         9.1230    2.9790   -3.9390 hn        1 MOL      0.290046
    161 H79         9.3770    3.2110   -5.6030 hn        1 MOL      0.290046
    162 N14         4.9100    0.9040    0.2870 n         1 MOL      0.022391
    163 C49         3.9990    1.3770    1.4110 c3        1 MOL     -0.197069
    164 C50         4.4850    1.2980    2.8420 c         1 MOL      0.542767
    165 O22         3.9530    1.9470    3.7430 o         1 MOL     -0.589780
    166 C51         2.7140    0.6270    1.2590 c3        1 MOL      0.175952
    167 C52         1.9760    1.4130    0.1310 c3        1 MOL     -0.127550
    168 C53         0.6320    0.8420   -0.2430 c         1 MOL      0.668662
    169 O23         0.4860   -0.4240   -0.3160 o         1 MOL     -0.745426
    170 O24        -0.3300    1.5690   -0.5840 o         1 MOL     -0.745426
    171 H80         4.6660    0.1060   -0.2790 hn        1 MOL      0.067839
    172 H81         3.7930    2.4400    1.3240 h1        1 MOL      0.122207
    173 H82         2.0600    0.5530    2.1340 hc        1 MOL      0.004897
    174 H83         2.8780   -0.4180    1.0160 hc        1 MOL      0.004897
    175 H84         2.5790    1.5880   -0.7660 hc        1 MOL      0.012386
    176 H85         1.8580    2.3750    0.6230 hc        1 MOL      0.012386
    177 N15         5.4050    0.4550    3.1620 n         1 MOL     -0.092599
    178 C54         6.2840    0.5800    4.3300 c3        1 MOL     -0.419045
    179 H86         5.8900    1.3440    5.0000 h1        1 MOL      0.150476
    180 H87         6.3300   -0.3740    4.8540 h1        1 MOL      0.150476
    181 H88         7.2840    0.8640    4.0030 h1        1 MOL      0.150476
    182 H89         5.5410   -0.3160    2.5340 hn        1 MOL      0.176806
    183 Ca1        -1.8940   -0.5460   -1.2510 Ca        1 MOL      1.718457
    184 O25        -1.5960   -2.8860   -2.5800 oh        1 MOL     -0.821476
    185 H90        -2.4930   -3.1860   -2.7530 ho        1 MOL      0.381839
    186 H91        -1.0900   -3.2150   -3.3140 ho        1 MOL      0.381839
    187 O26        -0.5620    0.0870   -3.4590 oh        1 MOL     -0.821476
    188 H92         0.3580    0.3560   -3.4820 ho        1 MOL      0.381839
    189 H93        -1.0240    0.7830   -3.9440 ho        1 MOL      0.381839
@<TRIPOS>BOND
     1    1    2 1   
     2    1    4 1   
     3    1    5 1   
     4    1    6 1   
     5    2    3 2   
     6    2    7 1   
     7    7    8 1   
     8    7   15 1   
     9    8    9 1   
    10    8   11 1   
    11    8   16 1   
    12    9   10 2   
    13    9   19 1   
    14   11   12 1   
    15   11   17 1   
    16   11   18 1   
    17   12   13 1   
    18   12   14 1   
    19   19   20 1   
    20   19   28 1   
    21   20   21 1   
    22   20   23 1   
    23   20   29 1   
    24   21   22 2   
    25   21   41 1   
    26   23   24 1   
    27   23   30 1   
    28   23   31 1   
    29   24   25 1   
    30   24   32 1   
    31   24   33 1   
    32   25   26 1   
    33   25   34 1   
    34   25   35 1   
    35   26   27 1   
    36   26   36 1   
    37   26   37 1   
    38   27   38 1   
    39   27   39 1   
    40   27   40 1   
    41   41   42 1   
    42   41   49 1   
    43   42   43 1   
    44   42   45 1   
    45   42   50 1   
    46   43   44 2   
    47   43   53 1   
    48   45   46 1   
    49   45   51 1   
    50   45   52 1   
    51   46   47 1   
    52   46   48 1   
    53   53   54 1   
    54   53   57 1   
    55   54   55 1   
    56   54   58 1   
    57   54   59 1   
    58   55   56 2   
    59   55   60 1   
    60   60   61 1   
    61   60   68 1   
    62   61   62 1   
    63   61   64 1   
    64   61   69 1   
    65   62   63 2   
    66   62   72 1   
    67   64   65 1   
    68   64   70 1   
    69   64   71 1   
    70   65   66 1   
    71   65   67 1   
    72   72   73 1   
    73   72   76 1   
    74   73   74 1   
    75   73   77 1   
    76   73   78 1   
    77   74   75 2   
    78   74   79 1   
    79   79   80 1   
    80   79   86 1   
    81   80   81 1   
    82   80   83 1   
    83   80   87 1   
    84   81   82 2   
    85   81   93 1   
    86   83   84 1   
    87   83   85 1   
    88   83   88 1   
    89   84   90 1   
    90   84   91 1   
    91   84   92 1   
    92   85   89 1   
    93   93   94 1   
    94   93  101 1   
    95   94   95 1   
    96   94   97 1   
    97   94  102 1   
    98   95   96 2   
    99   95  112 1   
   100   97   98 1   
   101   97   99 1   
   102   97  103 1   
   103   98  100 1   
   104   98  104 1   
   105   98  105 1   
   106   99  106 1   
   107   99  107 1   
   108   99  108 1   
   109  100  109 1   
   110  100  110 1   
   111  100  111 1   
   112  112  113 1   
   113  112  119 1   
   114  113  114 1   
   115  113  116 1   
   116  113  120 1   
   117  114  115 2   
   118  114  126 1   
   119  116  117 1   
   120  116  118 1   
   121  116  121 1   
   122  117  123 1   
   123  117  124 1   
   124  117  125 1   
   125  118  122 1   
   126  126  127 1   
   127  126  133 1   
   128  127  128 1   
   129  127  130 1   
   130  127  134 1   
   131  128  129 2   
   132  128  140 1   
   133  130  131 1   
   134  130  132 1   
   135  130  135 1   
   136  131  137 1   
   137  131  138 1   
   138  131  139 1   
   139  132  136 1   
   140  140  141 1   
   141  140  149 1   
   142  141  142 1   
   143  141  144 1   
   144  141  150 1   
   145  142  143 2   
   146  142  162 1   
   147  144  145 1   
   148  144  151 1   
   149  144  152 1   
   150  145  146 1   
   151  145  153 1   
   152  145  154 1   
   153  146  147 1   
   154  146  155 1   
   155  146  156 1   
   156  147  148 1   
   157  147  157 1   
   158  147  158 1   
   159  148  159 1   
   160  148  160 1   
   161  148  161 1   
   162  162  163 1   
   163  162  171 1   
   164  163  164 1   
   165  163  166 1   
   166  163  172 1   
   167  164  165 2   
   168  164  177 1   
   169  166  167 1   
   170  166  173 1   
   171  166  174 1   
   172  167  168 1   
   173  167  175 1   
   174  167  176 1   
   175  168  169 1   
   176  168  170 1   
   177  177  178 1   
   178  177  182 1   
   179  178  179 1   
   180  178  180 1   
   181  178  181 1   
   182  184  185 1   
   183  184  186 1   
   184  187  188 1   
   185  187  189 1   
@<TRIPOS>SUBSTRUCTURE
     1 MOL         1 TEMP              0 ****  ****    0 ROOT
