@<TRIPOS>MOLECULE
MOL
  189   185     1     0     0
SMALL
resp


@<TRIPOS>ATOM
      1 C1         -0.9790    1.1060    6.7770 c3        1 MOL     -0.259158
      2 C2         -1.1680    1.0600    5.2460 c         1 MOL      0.816732
      3 O1         -0.2670    1.4980    4.5470 o         1 MOL     -0.655404
      4 H1         -0.0890    1.6880    7.0150 hc        1 MOL      0.057937
      5 H2         -1.8510    1.5720    7.2370 hc        1 MOL      0.057937
      6 H3         -0.8640    0.0930    7.1600 hc        1 MOL      0.057937
      7 N1         -2.2850    0.6100    4.7130 n         1 MOL     -0.621207
      8 C3         -2.5930    0.7520    3.3050 c3        1 MOL      0.098313
      9 C4         -2.9600    2.2620    2.9880 c         1 MOL      0.572947
     10 O2         -3.7630    2.8180    3.6640 o         1 MOL     -0.565844
     11 C5         -3.7980   -0.1750    3.0710 c3        1 MOL     -0.277420
     12 C6         -4.3760   -0.1650    1.6190 c         1 MOL      0.736275
     13 O3         -5.4560   -0.7580    1.5750 o         1 MOL     -0.661894
     14 O4         -3.8020    0.2600    0.6010 o         1 MOL     -0.661894
     15 H4         -2.8960    0.0610    5.3030 hn        1 MOL      0.321857
     16 H5         -1.7530    0.5490    2.6450 h1        1 MOL      0.065413
     17 H6         -4.5640    0.0750    3.7960 hc        1 MOL      0.081668
     18 H7         -3.4860   -1.1700    3.3810 hc        1 MOL      0.081668
     19 N2         -2.2640    2.9200    2.0730 n         1 MOL     -0.268157
     20 C7         -2.4720    4.3840    1.8070 c3        1 MOL     -0.027928
     21 C8         -3.7560    4.6110    1.0570 c         1 MOL      0.400471
     22 O5         -4.3080    5.6830    1.2080 o         1 MOL     -0.564666
     23 C9         -1.2480    5.0900    1.1420 c3        1 MOL     -0.085709
     24 C10        -0.9920    4.7480   -0.3110 c3        1 MOL      0.376209
     25 C11         0.1890    5.5350   -0.8780 c3        1 MOL     -0.178786
     26 C12         0.6110    5.0340   -2.2770 c3        1 MOL      0.189493
     27 N3         -0.4830    5.2300   -3.3510 n4        1 MOL     -0.532484
     28 H8         -1.6010    2.3510    1.5620 hn        1 MOL      0.115200
     29 H9         -2.5770    4.7950    2.8160 h1        1 MOL      0.109642
     30 H10        -0.3670    4.9280    1.7650 hc        1 MOL      0.042661
     31 H11        -1.4790    6.1400    1.3270 hc        1 MOL      0.042661
     32 H12        -1.8760    4.9620   -0.9090 hc        1 MOL     -0.117848
     33 H13        -0.7230    3.6970   -0.3850 hc        1 MOL     -0.117848
     34 H14         1.0180    5.5000   -0.1800 hc        1 MOL      0.040621
     35 H15        -0.1230    6.5750   -0.9130 hc        1 MOL      0.040621
     36 H16         0.9930    4.0160   -2.2370 hx        1 MOL      0.015958
     37 H17         1.4720    5.5690   -2.6620 hx        1 MOL      0.015958
     38 H18        -0.1380    4.9760   -4.2660 hn        1 MOL      0.353121
     39 H19        -1.2070    4.5600   -3.1260 hn        1 MOL      0.353121
     40 H20        -0.9300    6.1270   -3.3090 hn        1 MOL      0.353121
     41 N4         -4.1170    3.8150    0.1150 n         1 MOL     -0.117577
     42 C13        -5.1690    4.0590   -0.8670 c3        1 MOL      0.001996
     43 C14        -6.3960    3.0950   -0.7800 c         1 MOL      0.397787
     44 O6         -7.3480    3.2180   -1.5450 o         1 MOL     -0.492947
     45 C15        -4.4470    4.1540   -2.2440 c3        1 MOL     -0.078855
     46 C16        -3.3470    3.1250   -2.5220 c         1 MOL      1.049517
     47 O7         -2.5100    3.4180   -3.3910 o         1 MOL     -0.818578
     48 O8         -3.4120    2.0360   -1.9170 o         1 MOL     -0.818578
     49 H21        -3.6780    2.9050    0.0410 hn        1 MOL      0.035159
     50 H22        -5.5840    5.0490   -0.7120 h1        1 MOL      0.110683
     51 H23        -3.9890    5.1400   -2.3300 hc        1 MOL     -0.006540
     52 H24        -5.1600    4.1360   -3.0660 hc        1 MOL     -0.006540
     53 N5         -6.4930    2.2130    0.2080 n         1 MOL     -0.228191
     54 C17        -7.6140    1.3570    0.6050 c3        1 MOL     -0.138346
     55 C18        -7.8270    0.2960   -0.3880 c         1 MOL      0.564152
     56 O9         -8.9840    0.1160   -0.7710 o         1 MOL     -0.581729
     57 H25        -5.6580    2.0150    0.7440 hn        1 MOL      0.191645
     58 H26        -8.5630    1.8890    0.7150 h1        1 MOL      0.090105
     59 H27        -7.2910    0.8990    1.5470 h1        1 MOL      0.090105
     60 N6         -6.7830   -0.3720   -0.8640 n         1 MOL     -0.336280
     61 C19        -6.8020   -1.4560   -1.8310 c3        1 MOL      0.103103
     62 C20        -6.4960   -2.8630   -1.2710 c         1 MOL      0.397926
     63 O10        -6.5630   -3.8370   -2.0800 o         1 MOL     -0.579160
     64 C21        -6.0770   -1.0740   -3.1210 c3        1 MOL     -0.249185
     65 C22        -4.5580   -0.8750   -2.8660 c         1 MOL      0.737259
     66 O11        -4.0040   -1.3730   -1.8860 o         1 MOL     -0.684016
     67 O12        -3.9490   -0.2130   -3.7090 o         1 MOL     -0.684016
     68 H28        -5.8800   -0.1330   -0.4680 hn        1 MOL      0.245759
     69 H29        -7.8470   -1.6730   -2.0330 h1        1 MOL      0.058624
     70 H30        -6.5900   -0.1890   -3.4920 hc        1 MOL      0.080126
     71 H31        -6.2070   -1.8350   -3.8950 hc        1 MOL      0.080126
     72 N7         -6.0350   -2.9250   -0.0830 n         1 MOL     -0.135534
     73 C23        -5.9050   -4.1280    0.7080 c3        1 MOL     -0.182028
     74 C24        -4.5450   -4.7560    0.4590 c         1 MOL      0.566207
     75 O13        -4.2460   -5.8040    0.9230 o         1 MOL     -0.557091
     76 H32        -5.9220   -2.1470    0.5580 hn        1 MOL      0.189471
     77 H33        -6.6440   -4.9030    0.5190 h1        1 MOL      0.098682
     78 H34        -5.9060   -3.8600    1.7630 h1        1 MOL      0.098682
     79 N8         -3.6690   -4.0540   -0.2970 n         1 MOL     -0.238060
     80 C25        -2.2930   -4.5120   -0.5140 c3        1 MOL     -0.251035
     81 C26        -1.2810   -3.4290   -0.0430 c         1 MOL      0.919748
     82 O14        -1.5450   -2.2680    0.0410 o         1 MOL     -0.846856
     83 C27        -2.0870   -4.9030   -1.9700 c3        1 MOL      0.359549
     84 C28        -3.0300   -6.0350   -2.2650 c3        1 MOL     -0.373295
     85 O15        -2.3590   -3.7870   -2.8060 oh        1 MOL     -0.570873
     86 H35        -3.8260   -3.1080   -0.6280 hn        1 MOL      0.204227
     87 H36        -2.2280   -5.3740    0.1570 h1        1 MOL      0.089339
     88 H37        -1.0360   -5.1470   -2.1260 h1        1 MOL      0.022550
     89 H38        -3.2930   -3.6420   -2.6250 ho        1 MOL      0.373099
     90 H39        -2.7880   -6.8670   -1.6130 hc        1 MOL      0.098677
     91 H40        -4.0570   -5.6780   -2.2630 hc        1 MOL      0.098677
     92 H41        -2.8120   -6.4290   -3.2590 hc        1 MOL      0.098677
     93 N9         -0.1390   -3.9910    0.3290 n         1 MOL     -0.641544
     94 C29         0.9440   -3.2130    0.8590 c3        1 MOL     -0.019927
     95 C30         2.1230   -3.4260   -0.1680 c         1 MOL      0.442460
     96 O16         2.6620   -4.5580   -0.4210 o         1 MOL     -0.536088
     97 C31         1.2950   -3.6870    2.2480 c3        1 MOL      0.055779
     98 C32         0.0840   -3.2150    3.1110 c3        1 MOL      0.176347
     99 C33         2.6380   -3.2690    2.8340 c3        1 MOL     -0.153460
    100 C34         0.2350   -3.1520    4.6290 c3        1 MOL     -0.245430
    101 H42         0.0220   -4.9890    0.2900 hn        1 MOL      0.310623
    102 H43         0.6630   -2.1620    0.8840 h1        1 MOL      0.281490
    103 H44         1.3080   -4.7720    2.3110 hc        1 MOL      0.031306
    104 H45        -0.7270   -3.9380    2.9880 hc        1 MOL     -0.029919
    105 H46        -0.2580   -2.2330    2.7870 hc        1 MOL     -0.029919
    106 H47         2.7540   -2.1820    2.8160 hc        1 MOL      0.021534
    107 H48         2.6160   -3.5700    3.8820 hc        1 MOL      0.021534
    108 H49         3.4290   -3.7690    2.2640 hc        1 MOL      0.021534
    109 H50         0.7220   -4.0980    4.8710 hc        1 MOL      0.053945
    110 H51         0.7800   -2.2590    4.9320 hc        1 MOL      0.053945
    111 H52        -0.7010   -3.0320    5.1770 hc        1 MOL      0.053945
    112 N10         2.5830   -2.2880   -0.7740 n         1 MOL     -0.196628
    113 C35         3.8100   -2.3040   -1.5980 c3        1 MOL     -0.001965
    114 C36         5.0970   -2.3060   -0.7680 c         1 MOL      0.413743
    115 O17         4.9470   -2.2520    0.4630 o         1 MOL     -0.419739
    116 C37         3.8750   -1.0930   -2.5540 c3        1 MOL      0.132806
    117 C38         2.5930   -0.8410   -3.3030 c3        1 MOL     -0.423156
    118 O18         4.1490    0.0250   -1.7230 oh        1 MOL     -0.426559
    119 H53         2.0370   -1.4530   -0.5700 hn        1 MOL      0.165540
    120 H54         3.8810   -3.1640   -2.2560 h1        1 MOL      0.063927
    121 H55         4.6980   -1.2420   -3.2600 h1        1 MOL      0.051201
    122 H56         3.5340    0.7020   -2.0080 ho        1 MOL      0.374432
    123 H57         2.1940   -1.7770   -3.6700 hc        1 MOL      0.121951
    124 H58         1.7860   -0.4320   -2.7020 hc        1 MOL      0.121951
    125 H59         2.7680   -0.1560   -4.1410 hc        1 MOL      0.121951
    126 N11         6.2450   -2.2720   -1.3330 n         1 MOL     -0.277331
    127 C39         7.5610   -1.9920   -0.5940 c3        1 MOL     -0.198802
    128 C40         7.5980   -0.6310    0.0350 c         1 MOL      0.371072
    129 O19         8.3000   -0.5370    0.9960 o         1 MOL     -0.500807
    130 C41         8.7290   -2.0400   -1.6210 c3        1 MOL      0.378778
    131 C42         8.9380   -3.4620   -2.0700 c3        1 MOL     -0.444909
    132 O20         8.5490   -1.2350   -2.7530 oh        1 MOL     -0.621031
    133 H60         6.3660   -2.4320   -2.3140 hn        1 MOL      0.259979
    134 H61         7.7090   -2.8090    0.0980 h1        1 MOL      0.174281
    135 H62         9.6570   -1.7000   -1.1570 h1        1 MOL      0.018070
    136 H63         9.3880   -1.1060   -3.1880 ho        1 MOL      0.397463
    137 H64         9.0710   -4.1510   -1.2360 hc        1 MOL      0.123464
    138 H65         8.0700   -3.6670   -2.6920 hc        1 MOL      0.123464
    139 H66         9.8600   -3.4020   -2.6570 hc        1 MOL      0.123464
    140 N12         6.8420    0.3410   -0.5150 n         1 MOL     -0.038006
    141 C43         6.7920    1.7130    0.0530 c3        1 MOL     -0.016674
    142 C44         5.9350    1.7530    1.2810 c         1 MOL      0.299411
    143 O21         6.2630    2.4710    2.2100 o         1 MOL     -0.487070
    144 C45         6.3520    2.7470   -1.0170 c3        1 MOL     -0.124058
    145 C46         7.0430    2.7650   -2.3500 c3        1 MOL     -0.047667
    146 C47         8.5480    2.4410   -2.3400 c3        1 MOL      0.153883
    147 C48         9.3690    3.6290   -1.8180 c3        1 MOL     -0.035460
    148 N13        10.8150    3.4080   -1.8520 n4        1 MOL     -0.304740
    149 H67         6.2070    0.0470   -1.2490 hn        1 MOL      0.092584
    150 H68         7.7780    1.9990    0.4240 h1        1 MOL      0.064631
    151 H69         6.5550    3.7390   -0.6020 hc        1 MOL      0.047819
    152 H70         5.2680    2.6610   -1.1400 hc        1 MOL      0.047819
    153 H71         6.9850    3.7680   -2.7760 hc        1 MOL      0.025836
    154 H72         6.5470    2.0380   -2.9930 hc        1 MOL      0.025836
    155 H73         8.6870    2.2770   -3.4110 hc        1 MOL     -0.032507
    156 H74         8.8730    1.4660   -1.9700 hc        1 MOL     -0.032507
    157 H75         9.0600    3.7580   -0.7850 hx        1 MOL      0.101645
    158 H76         9.0770    4.4720   -2.4420 hx        1 MOL      0.101645
    159 H77        11.1410    3.1610   -0.9290 hn        1 MOL      0.298562
    160 H78        11.0700    2.7140   -2.5410 hn        1 MOL      0.298562
    161 H79        11.3150    4.2510   -2.1030 hn        1 MOL      0.298562
    162 N14         4.7530    1.1840    1.2110 n         1 MOL      0.005614
    163 C49         3.8000    1.1630    2.3150 c3        1 MOL     -0.253859
    164 C50         4.3530    0.2430    3.4950 c         1 MOL      0.478557
    165 O22         4.1650    0.5180    4.6660 o         1 MOL     -0.532818
    166 C51         2.4420    0.5890    1.8190 c3        1 MOL      0.169957
    167 C52         1.7710    1.4560    0.7440 c3        1 MOL     -0.027078
    168 C53         0.5070    0.7360    0.3690 c         1 MOL      0.582834
    169 O23         0.6060   -0.2530   -0.3820 o         1 MOL     -0.628081
    170 O24        -0.6120    1.2040    0.5870 o         1 MOL     -0.628081
    171 H80         4.4870    0.6950    0.3670 hn        1 MOL     -0.005545
    172 H81         3.6780    2.1460    2.7700 h1        1 MOL      0.148430
    173 H82         1.7870    0.5580    2.6940 hc        1 MOL      0.001880
    174 H83         2.6240   -0.4150    1.4260 hc        1 MOL      0.001880
    175 H84         2.4220    1.3980   -0.1320 hc        1 MOL     -0.001942
    176 H85         1.5750    2.5040    0.9830 hc        1 MOL     -0.001942
    177 N15         5.1200   -0.7850    3.1680 n         1 MOL     -0.075746
    178 C54         5.8540   -1.6350    4.1190 c3        1 MOL     -0.337987
    179 H86         6.9240   -1.4590    4.0100 h1        1 MOL      0.121434
    180 H87         5.5480   -1.3900    5.1360 h1        1 MOL      0.121434
    181 H88         5.6360   -2.6830    3.9140 h1        1 MOL      0.121434
    182 H89         5.3080   -0.9480    2.1910 hn        1 MOL      0.200472
    183 Ca1        -1.9970    0.0170   -1.1470 Ca        1 MOL      1.774906
    184 O25        -0.8740   -1.5370   -3.0410 oh        1 MOL     -0.881386
    185 H90        -0.5280   -1.2010   -3.8630 ho        1 MOL      0.404126
    186 H91        -1.3250   -2.3480   -3.2890 ho        1 MOL      0.404126
    187 O26        -0.5640    1.5620   -2.8750 oh        1 MOL     -0.881386
    188 H92         0.2310    1.6180   -3.4040 ho        1 MOL      0.404126
    189 H93        -1.0660    2.3360   -3.1050 ho        1 MOL      0.404126
@<TRIPOS>BOND
     1    1    2 1   
     2    1    4 1   
     3    1    5 1   
     4    1    6 1   
     5    2    3 2   
     6    2    7 1   
     7    7    8 1   
     8    7   15 1   
     9    8    9 1   
    10    8   11 1   
    11    8   16 1   
    12    9   10 2   
    13    9   19 1   
    14   11   12 1   
    15   11   17 1   
    16   11   18 1   
    17   12   13 1   
    18   12   14 1   
    19   19   20 1   
    20   19   28 1   
    21   20   21 1   
    22   20   23 1   
    23   20   29 1   
    24   21   22 2   
    25   21   41 1   
    26   23   24 1   
    27   23   30 1   
    28   23   31 1   
    29   24   25 1   
    30   24   32 1   
    31   24   33 1   
    32   25   26 1   
    33   25   34 1   
    34   25   35 1   
    35   26   27 1   
    36   26   36 1   
    37   26   37 1   
    38   27   38 1   
    39   27   39 1   
    40   27   40 1   
    41   41   42 1   
    42   41   49 1   
    43   42   43 1   
    44   42   45 1   
    45   42   50 1   
    46   43   44 2   
    47   43   53 1   
    48   45   46 1   
    49   45   51 1   
    50   45   52 1   
    51   46   47 1   
    52   46   48 1   
    53   53   54 1   
    54   53   57 1   
    55   54   55 1   
    56   54   58 1   
    57   54   59 1   
    58   55   56 2   
    59   55   60 1   
    60   60   61 1   
    61   60   68 1   
    62   61   62 1   
    63   61   64 1   
    64   61   69 1   
    65   62   63 2   
    66   62   72 1   
    67   64   65 1   
    68   64   70 1   
    69   64   71 1   
    70   65   66 1   
    71   65   67 1   
    72   72   73 1   
    73   72   76 1   
    74   73   74 1   
    75   73   77 1   
    76   73   78 1   
    77   74   75 2   
    78   74   79 1   
    79   79   80 1   
    80   79   86 1   
    81   80   81 1   
    82   80   83 1   
    83   80   87 1   
    84   81   82 2   
    85   81   93 1   
    86   83   84 1   
    87   83   85 1   
    88   83   88 1   
    89   84   90 1   
    90   84   91 1   
    91   84   92 1   
    92   85   89 1   
    93   93   94 1   
    94   93  101 1   
    95   94   95 1   
    96   94   97 1   
    97   94  102 1   
    98   95   96 2   
    99   95  112 1   
   100   97   98 1   
   101   97   99 1   
   102   97  103 1   
   103   98  100 1   
   104   98  104 1   
   105   98  105 1   
   106   99  106 1   
   107   99  107 1   
   108   99  108 1   
   109  100  109 1   
   110  100  110 1   
   111  100  111 1   
   112  112  113 1   
   113  112  119 1   
   114  113  114 1   
   115  113  116 1   
   116  113  120 1   
   117  114  115 2   
   118  114  126 1   
   119  116  117 1   
   120  116  118 1   
   121  116  121 1   
   122  117  123 1   
   123  117  124 1   
   124  117  125 1   
   125  118  122 1   
   126  126  127 1   
   127  126  133 1   
   128  127  128 1   
   129  127  130 1   
   130  127  134 1   
   131  128  129 2   
   132  128  140 1   
   133  130  131 1   
   134  130  132 1   
   135  130  135 1   
   136  131  137 1   
   137  131  138 1   
   138  131  139 1   
   139  132  136 1   
   140  140  141 1   
   141  140  149 1   
   142  141  142 1   
   143  141  144 1   
   144  141  150 1   
   145  142  143 2   
   146  142  162 1   
   147  144  145 1   
   148  144  151 1   
   149  144  152 1   
   150  145  146 1   
   151  145  153 1   
   152  145  154 1   
   153  146  147 1   
   154  146  155 1   
   155  146  156 1   
   156  147  148 1   
   157  147  157 1   
   158  147  158 1   
   159  148  159 1   
   160  148  160 1   
   161  148  161 1   
   162  162  163 1   
   163  162  171 1   
   164  163  164 1   
   165  163  166 1   
   166  163  172 1   
   167  164  165 2   
   168  164  177 1   
   169  166  167 1   
   170  166  173 1   
   171  166  174 1   
   172  167  168 1   
   173  167  175 1   
   174  167  176 1   
   175  168  169 1   
   176  168  170 1   
   177  177  178 1   
   178  177  182 1   
   179  178  179 1   
   180  178  180 1   
   181  178  181 1   
   182  184  185 1   
   183  184  186 1   
   184  187  188 1   
   185  187  189 1   
@<TRIPOS>SUBSTRUCTURE
     1 MOL         1 TEMP              0 ****  ****    0 ROOT
