@<TRIPOS>MOLECULE
MOL
  189   185     1     0     0
SMALL
resp


@<TRIPOS>ATOM
      1 C1         -0.1830    3.1810   -4.9630 c3        1 MOL     -0.384984
      2 C2          0.3030    2.6310   -3.6230 c         1 MOL      0.625095
      3 O1         -0.3760    2.8850   -2.6410 o         1 MOL     -0.615804
      4 H1         -1.1260    3.7090   -4.8180 hc        1 MOL      0.093075
      5 H2          0.5600    3.8700   -5.3650 hc        1 MOL      0.093075
      6 H3         -0.3330    2.3580   -5.6620 hc        1 MOL      0.093075
      7 N1          1.3740    1.9800   -3.5610 n         1 MOL     -0.421194
      8 C3          2.1630    1.7580   -2.3190 c3        1 MOL      0.381604
      9 C4          2.8330    3.0610   -1.7770 c         1 MOL      0.147378
     10 O2          3.9890    3.3920   -2.0860 o         1 MOL     -0.458813
     11 C5          3.1200    0.6030   -2.5880 c3        1 MOL     -0.374457
     12 C6          3.9630    0.3290   -1.3260 c         1 MOL      0.668648
     13 O3          3.5420    0.6480   -0.1610 o         1 MOL     -0.550199
     14 O4          4.9930   -0.3030   -1.4320 o         1 MOL     -0.550199
     15 H4          1.8800    1.7880   -4.4110 hn        1 MOL      0.275137
     16 H5          1.4860    1.5200   -1.5020 h1        1 MOL     -0.119675
     17 H6          3.7550    0.9410   -3.3970 hc        1 MOL      0.097568
     18 H7          2.5250   -0.2260   -2.9590 hc        1 MOL      0.097568
     19 N2          2.1010    3.8030   -0.9170 n         1 MOL     -0.012015
     20 C7          2.5210    5.1000   -0.2330 c3        1 MOL     -0.068483
     21 C8          3.3490    4.9530    1.1140 c         1 MOL      0.391169
     22 O5          3.9960    5.9320    1.5730 o         1 MOL     -0.536100
     23 C9          1.1960    5.8320   -0.0120 c3        1 MOL     -0.099806
     24 C10         0.7020    6.4600   -1.3450 c3        1 MOL      0.097749
     25 C11        -0.5030    7.3280   -0.9240 c3        1 MOL     -0.000400
     26 C12        -0.9720    8.1940   -2.0750 c3        1 MOL     -0.228086
     27 N3         -1.5140    7.3330   -3.1550 n4        1 MOL     -0.181241
     28 H8          1.2200    3.4390   -0.5960 hn        1 MOL      0.203161
     29 H9          3.0270    5.7570   -0.9410 h1        1 MOL      0.094275
     30 H10         1.4020    6.6620    0.6680 hc        1 MOL      0.050454
     31 H11         0.4640    5.1910    0.4840 hc        1 MOL      0.050454
     32 H12         0.5480    5.6650   -2.0770 hc        1 MOL     -0.011943
     33 H13         1.4330    7.1600   -1.7560 hc        1 MOL     -0.011943
     34 H14        -0.1790    7.9300   -0.0830 hc        1 MOL      0.055756
     35 H15        -1.3240    6.6950   -0.5670 hc        1 MOL      0.055756
     36 H16        -0.1370    8.7500   -2.4960 hx        1 MOL      0.150718
     37 H17        -1.7990    8.8200   -1.7420 hx        1 MOL      0.150718
     38 H18        -2.2550    7.6660   -3.7630 hn        1 MOL      0.288914
     39 H19        -0.8160    7.0900   -3.8480 hn        1 MOL      0.288914
     40 H20        -1.7970    6.4650   -2.7220 hn        1 MOL      0.288914
     41 N4          3.4120    3.7570    1.7360 n         1 MOL     -0.103608
     42 C13         4.3330    3.5370    2.9320 c3        1 MOL     -0.088222
     43 C14         5.6080    2.7420    2.6350 c         1 MOL      0.400881
     44 O6          6.4130    2.4380    3.5100 o         1 MOL     -0.467829
     45 C15         3.6910    2.9370    4.2240 c3        1 MOL     -0.181949
     46 C16         3.1270    1.4700    4.2180 c         1 MOL      0.717467
     47 O7          2.5210    1.1390    5.3230 o         1 MOL     -0.639911
     48 O8          3.0680    0.8400    3.1420 o         1 MOL     -0.639911
     49 H21         2.9940    2.9460    1.2960 hn        1 MOL      0.068377
     50 H22         4.6360    4.5250    3.2760 h1        1 MOL      0.140050
     51 H23         2.8020    3.5420    4.3830 hc        1 MOL      0.046356
     52 H24         4.3200    3.0560    5.1150 hc        1 MOL      0.046356
     53 N5          5.7860    2.3040    1.3740 n         1 MOL     -0.274461
     54 C17         6.8560    1.5580    0.7790 c3        1 MOL      0.028015
     55 C18         7.2850    0.2840    1.3760 c         1 MOL      0.390694
     56 O9          8.4630    0.1640    1.7700 o         1 MOL     -0.550369
     57 H25         4.9570    2.3930    0.8050 hn        1 MOL      0.186038
     58 H26         7.7370    2.1820    0.6530 h1        1 MOL      0.045018
     59 H27         6.5140    1.3720   -0.2490 h1        1 MOL      0.045018
     60 N6          6.3490   -0.6140    1.4200 n         1 MOL     -0.055677
     61 C19         6.5790   -2.0480    1.7420 c3        1 MOL     -0.056001
     62 C20         6.7180   -2.9950    0.4920 c         1 MOL      0.430195
     63 O10         7.0320   -4.1570    0.5760 o         1 MOL     -0.521063
     64 C21         5.5800   -2.5680    2.7190 c3        1 MOL     -0.058894
     65 C22         4.1470   -2.4260    2.2130 c         1 MOL      0.679280
     66 O11         3.8760   -2.6320    1.0200 o         1 MOL     -0.717618
     67 O12         3.2780   -2.1200    3.0800 o         1 MOL     -0.717618
     68 H28         5.3910   -0.4010    1.1880 hn        1 MOL      0.053860
     69 H29         7.5580   -2.1830    2.2000 h1        1 MOL      0.095657
     70 H30         5.6960   -1.9400    3.6090 hc        1 MOL      0.037948
     71 H31         5.8200   -3.5940    2.9950 hc        1 MOL      0.037948
     72 N7          6.5360   -2.4130   -0.7090 n         1 MOL     -0.241658
     73 C23         6.5260   -3.1120   -1.9910 c3        1 MOL     -0.145077
     74 C24         5.2820   -3.9990   -2.2270 c         1 MOL      0.500873
     75 O13         5.2820   -4.8260   -3.1260 o         1 MOL     -0.568248
     76 H32         6.1240   -1.4910   -0.7170 hn        1 MOL      0.149565
     77 H33         7.4490   -3.6800   -2.1080 h1        1 MOL      0.091836
     78 H34         6.4890   -2.3300   -2.7530 h1        1 MOL      0.091836
     79 N8          4.2030   -3.7410   -1.4930 n         1 MOL     -0.057201
     80 C25         2.8180   -4.2400   -1.7700 c3        1 MOL     -0.364384
     81 C26         1.7190   -3.2180   -1.7350 c         1 MOL      0.701743
     82 O14         1.8130   -2.1960   -0.9960 o         1 MOL     -0.760966
     83 C27         2.4900   -5.3710   -0.7890 c3        1 MOL      0.417197
     84 C28         3.3570   -6.6550   -0.9490 c3        1 MOL     -0.484017
     85 O15         2.5700   -4.9750    0.5640 oh        1 MOL     -0.635618
     86 H35         4.2670   -3.2110   -0.6290 hn        1 MOL      0.171028
     87 H36         2.8330   -4.5990   -2.8010 h1        1 MOL      0.125047
     88 H37         1.4290   -5.6370   -0.8660 h1        1 MOL      0.006874
     89 H38         3.0700   -4.1680    0.6830 ho        1 MOL      0.444371
     90 H39         3.0080   -7.4210   -0.2590 hc        1 MOL      0.130423
     91 H40         3.2830   -7.1140   -1.9260 hc        1 MOL      0.130423
     92 H41         4.3940   -6.3640   -0.7860 hc        1 MOL      0.130423
     93 N9          0.5900   -3.4930   -2.3690 n         1 MOL     -0.447105
     94 C29        -0.5830   -2.5670   -2.4090 c3        1 MOL      0.058065
     95 C30        -1.7580   -3.1420   -1.5670 c         1 MOL      0.366008
     96 O16        -2.3260   -4.1970   -1.9930 o         1 MOL     -0.568102
     97 C31        -0.9950   -2.1820   -3.8560 c3        1 MOL      0.276050
     98 C32         0.2190   -1.7720   -4.6550 c3        1 MOL      0.259375
     99 C33        -1.8600   -0.8830   -3.8380 c3        1 MOL     -0.598332
    100 C34        -0.2130   -1.4930   -6.1580 c3        1 MOL     -0.385510
    101 H42         0.4730   -4.3740   -2.8680 hn        1 MOL      0.260156
    102 H43        -0.2850   -1.5940   -2.0370 h1        1 MOL      0.127983
    103 H44        -1.5480   -2.9870   -4.3270 hc        1 MOL     -0.023210
    104 H45         0.8670   -2.6490   -4.6340 hc        1 MOL     -0.067299
    105 H46         0.7090   -0.9160   -4.2040 hc        1 MOL     -0.067299
    106 H47        -1.3050    0.0240   -3.5800 hc        1 MOL      0.128397
    107 H48        -2.3170   -0.7750   -4.8220 hc        1 MOL      0.128397
    108 H49        -2.6220   -0.8860   -3.0560 hc        1 MOL      0.128397
    109 H50        -0.9580   -2.1670   -6.5810 hc        1 MOL      0.091827
    110 H51        -0.6060   -0.4940   -6.3220 hc        1 MOL      0.091827
    111 H52         0.7360   -1.5050   -6.6760 hc        1 MOL      0.091827
    112 N10        -2.2870   -2.3830   -0.6570 n         1 MOL      0.046418
    113 C35        -3.4990   -2.8060    0.1140 c3        1 MOL      0.015545
    114 C36        -4.8050   -2.3460   -0.5830 c         1 MOL      0.177668
    115 O17        -4.7300   -1.4820   -1.4480 o         1 MOL     -0.283606
    116 C37        -3.5720   -2.1700    1.5410 c3        1 MOL      0.427512
    117 C38        -2.4430   -2.8660    2.4080 c3        1 MOL     -0.428059
    118 O18        -3.3530   -0.8090    1.5580 oh        1 MOL     -0.558423
    119 H53        -1.8100   -1.5370   -0.3540 hn        1 MOL     -0.036286
    120 H54        -3.5080   -3.8880    0.2570 h1        1 MOL      0.063164
    121 H55        -4.5600   -2.4130    1.9490 h1        1 MOL     -0.078654
    122 H56        -2.4030   -0.7780    1.3650 ho        1 MOL      0.290132
    123 H57        -2.0010   -2.3320    3.2390 hc        1 MOL      0.090711
    124 H58        -2.9750   -3.7240    2.8280 hc        1 MOL      0.090711
    125 H59        -1.7490   -3.3270    1.7030 hc        1 MOL      0.090711
    126 N11        -5.9150   -2.8550   -0.1190 n         1 MOL     -0.183074
    127 C39        -7.3010   -2.3470   -0.4390 c3        1 MOL     -0.134227
    128 C40        -7.5460   -0.8440   -0.1520 c         1 MOL      0.338243
    129 O19        -8.1290   -0.1920   -0.9450 o         1 MOL     -0.445791
    130 C41        -8.3340   -3.2520    0.3300 c3        1 MOL      0.333862
    131 C42        -8.5260   -4.6290   -0.2190 c3        1 MOL     -0.571993
    132 O20        -7.8440   -3.5040    1.6180 oh        1 MOL     -0.675134
    133 H60        -5.8110   -3.6360    0.5130 hn        1 MOL      0.222809
    134 H61        -7.4480   -2.3590   -1.5160 h1        1 MOL      0.130770
    135 H62        -9.2440   -2.6510    0.4330 h1        1 MOL      0.060637
    136 H63        -7.9860   -4.4490    1.7720 ho        1 MOL      0.418555
    137 H64        -8.6290   -4.6090   -1.3050 hc        1 MOL      0.165812
    138 H65        -7.6490   -5.2000    0.0830 hc        1 MOL      0.165812
    139 H66        -9.4120   -4.9860    0.3080 hc        1 MOL      0.165812
    140 N12        -6.8930   -0.3420    0.9480 n         1 MOL     -0.130620
    141 C43        -6.9350    1.0470    1.3280 c3        1 MOL     -0.227177
    142 C44        -5.9420    1.8420    0.4900 c         1 MOL      0.389912
    143 O21        -6.2670    2.9650    0.1590 o         1 MOL     -0.500374
    144 C45        -6.7760    1.2500    2.8140 c3        1 MOL      0.103325
    145 C46        -7.9630    0.6800    3.6490 c3        1 MOL     -0.032118
    146 C47        -7.8230    1.0170    5.1700 c3        1 MOL     -0.311990
    147 C48        -6.5170    0.4980    5.7830 c3        1 MOL     -0.076332
    148 N13        -6.4330   -0.9470    5.9610 n4        1 MOL     -0.240658
    149 H67        -6.3680   -0.9990    1.5090 hn        1 MOL      0.264751
    150 H68        -7.9190    1.3560    0.9680 h1        1 MOL      0.149821
    151 H69        -6.7810    2.3140    3.0530 hc        1 MOL      0.030693
    152 H70        -5.7890    0.9210    3.1520 hc        1 MOL      0.030693
    153 H71        -7.9580   -0.3840    3.4230 hc        1 MOL      0.028540
    154 H72        -8.8570    1.2410    3.3830 hc        1 MOL      0.028540
    155 H73        -8.7000    0.6170    5.6830 hc        1 MOL      0.152307
    156 H74        -7.7830    2.0980    5.3160 hc        1 MOL      0.152307
    157 H75        -6.3200    0.8690    6.7850 hx        1 MOL      0.125116
    158 H76        -5.6230    0.8210    5.2490 hx        1 MOL      0.125116
    159 H77        -5.5510   -1.2560    6.3450 hn        1 MOL      0.261214
    160 H78        -7.2750   -1.1860    6.4640 hn        1 MOL      0.261214
    161 H79        -6.4940   -1.4900    5.1110 hn        1 MOL      0.261214
    162 N14        -4.8490    1.2390    0.0280 n         1 MOL     -0.009597
    163 C49        -3.9940    1.9520   -0.8830 c3        1 MOL     -0.095280
    164 C50        -4.5440    2.2340   -2.2540 c         1 MOL      0.429717
    165 O22        -4.5470    3.3560   -2.7650 o         1 MOL     -0.541542
    166 C51        -2.6570    1.3460   -0.8580 c3        1 MOL      0.003797
    167 C52        -1.7900    1.8590    0.2990 c3        1 MOL      0.048353
    168 C53        -0.6490    0.9120    0.7500 c         1 MOL      0.811353
    169 O23         0.4050    1.3950    1.1800 o         1 MOL     -0.722147
    170 O24        -0.7740   -0.3550    0.7850 o         1 MOL     -0.722147
    171 H80        -4.6400    0.3150    0.3820 hn        1 MOL     -0.005967
    172 H81        -3.8710    3.0010   -0.6190 h1        1 MOL      0.052126
    173 H82        -2.0960    1.5360   -1.7760 hc        1 MOL      0.025311
    174 H83        -2.6810    0.2530   -0.9190 hc        1 MOL      0.025311
    175 H84        -2.3020    2.1800    1.2040 hc        1 MOL     -0.042460
    176 H85        -1.2610    2.7380   -0.0720 hc        1 MOL     -0.042460
    177 N15        -5.2060    1.1720   -2.7760 n         1 MOL     -0.059389
    178 C54        -6.0080    1.2670   -4.0240 c3        1 MOL     -0.301037
    179 H86        -7.0100    1.6210   -3.7850 h1        1 MOL      0.110528
    180 H87        -5.5310    1.9660   -4.7110 h1        1 MOL      0.110528
    181 H88        -6.0730    0.2850   -4.4920 h1        1 MOL      0.110528
    182 H89        -5.0950    0.2260   -2.4330 hn        1 MOL      0.138020
    183 Ca1         1.9070   -0.7180    1.2740 Ca        1 MOL      1.743731
    184 O25         0.3820   -0.2910    3.5420 oh        1 MOL     -0.733576
    185 H90         0.2860   -0.7460    4.3690 ho        1 MOL      0.369741
    186 H91        -0.4390    0.1990    3.4450 ho        1 MOL      0.369741
    187 O26         0.9110   -3.2380    1.5030 oh        1 MOL     -0.733576
    188 H92         1.0980   -4.1740    1.4400 ho        1 MOL      0.369741
    189 H93         0.5680   -3.1260    2.3900 ho        1 MOL      0.369741
@<TRIPOS>BOND
     1    1    2 1   
     2    1    4 1   
     3    1    5 1   
     4    1    6 1   
     5    2    3 2   
     6    2    7 1   
     7    7    8 1   
     8    7   15 1   
     9    8    9 1   
    10    8   11 1   
    11    8   16 1   
    12    9   10 2   
    13    9   19 1   
    14   11   12 1   
    15   11   17 1   
    16   11   18 1   
    17   12   13 1   
    18   12   14 1   
    19   19   20 1   
    20   19   28 1   
    21   20   21 1   
    22   20   23 1   
    23   20   29 1   
    24   21   22 2   
    25   21   41 1   
    26   23   24 1   
    27   23   30 1   
    28   23   31 1   
    29   24   25 1   
    30   24   32 1   
    31   24   33 1   
    32   25   26 1   
    33   25   34 1   
    34   25   35 1   
    35   26   27 1   
    36   26   36 1   
    37   26   37 1   
    38   27   38 1   
    39   27   39 1   
    40   27   40 1   
    41   41   42 1   
    42   41   49 1   
    43   42   43 1   
    44   42   45 1   
    45   42   50 1   
    46   43   44 2   
    47   43   53 1   
    48   45   46 1   
    49   45   51 1   
    50   45   52 1   
    51   46   47 1   
    52   46   48 1   
    53   53   54 1   
    54   53   57 1   
    55   54   55 1   
    56   54   58 1   
    57   54   59 1   
    58   55   56 2   
    59   55   60 1   
    60   60   61 1   
    61   60   68 1   
    62   61   62 1   
    63   61   64 1   
    64   61   69 1   
    65   62   63 2   
    66   62   72 1   
    67   64   65 1   
    68   64   70 1   
    69   64   71 1   
    70   65   66 1   
    71   65   67 1   
    72   72   73 1   
    73   72   76 1   
    74   73   74 1   
    75   73   77 1   
    76   73   78 1   
    77   74   75 2   
    78   74   79 1   
    79   79   80 1   
    80   79   86 1   
    81   80   81 1   
    82   80   83 1   
    83   80   87 1   
    84   81   82 2   
    85   81   93 1   
    86   83   84 1   
    87   83   85 1   
    88   83   88 1   
    89   84   90 1   
    90   84   91 1   
    91   84   92 1   
    92   85   89 1   
    93   93   94 1   
    94   93  101 1   
    95   94   95 1   
    96   94   97 1   
    97   94  102 1   
    98   95   96 2   
    99   95  112 1   
   100   97   98 1   
   101   97   99 1   
   102   97  103 1   
   103   98  100 1   
   104   98  104 1   
   105   98  105 1   
   106   99  106 1   
   107   99  107 1   
   108   99  108 1   
   109  100  109 1   
   110  100  110 1   
   111  100  111 1   
   112  112  113 1   
   113  112  119 1   
   114  113  114 1   
   115  113  116 1   
   116  113  120 1   
   117  114  115 2   
   118  114  126 1   
   119  116  117 1   
   120  116  118 1   
   121  116  121 1   
   122  117  123 1   
   123  117  124 1   
   124  117  125 1   
   125  118  122 1   
   126  126  127 1   
   127  126  133 1   
   128  127  128 1   
   129  127  130 1   
   130  127  134 1   
   131  128  129 2   
   132  128  140 1   
   133  130  131 1   
   134  130  132 1   
   135  130  135 1   
   136  131  137 1   
   137  131  138 1   
   138  131  139 1   
   139  132  136 1   
   140  140  141 1   
   141  140  149 1   
   142  141  142 1   
   143  141  144 1   
   144  141  150 1   
   145  142  143 2   
   146  142  162 1   
   147  144  145 1   
   148  144  151 1   
   149  144  152 1   
   150  145  146 1   
   151  145  153 1   
   152  145  154 1   
   153  146  147 1   
   154  146  155 1   
   155  146  156 1   
   156  147  148 1   
   157  147  157 1   
   158  147  158 1   
   159  148  159 1   
   160  148  160 1   
   161  148  161 1   
   162  162  163 1   
   163  162  171 1   
   164  163  164 1   
   165  163  166 1   
   166  163  172 1   
   167  164  165 2   
   168  164  177 1   
   169  166  167 1   
   170  166  173 1   
   171  166  174 1   
   172  167  168 1   
   173  167  175 1   
   174  167  176 1   
   175  168  169 1   
   176  168  170 1   
   177  177  178 1   
   178  177  182 1   
   179  178  179 1   
   180  178  180 1   
   181  178  181 1   
   182  184  185 1   
   183  184  186 1   
   184  187  188 1   
   185  187  189 1   
@<TRIPOS>SUBSTRUCTURE
     1 MOL         1 TEMP              0 ****  ****    0 ROOT
