@<TRIPOS>MOLECULE
MOL
  189   185     1     0     0
SMALL
resp


@<TRIPOS>ATOM
      1 C1          0.2710    3.6170   -4.4480 c3        1 MOL     -0.330099
      2 C2          0.9510    3.2550   -3.1130 c         1 MOL      0.586773
      3 O1          0.3980    3.5340   -2.0430 o         1 MOL     -0.591014
      4 H1         -0.3520    2.7840   -4.7760 hc        1 MOL      0.083415
      5 H2         -0.3500    4.5020   -4.3130 hc        1 MOL      0.083415
      6 H3          1.0320    3.8190   -5.2020 hc        1 MOL      0.083415
      7 N1          2.0490    2.6050   -3.1740 n         1 MOL     -0.542558
      8 C3          2.7380    1.9690   -2.0160 c3        1 MOL      0.339558
      9 C4          3.6270    3.0490   -1.2490 c         1 MOL      0.383611
     10 O2          4.8480    2.9980   -1.3570 o         1 MOL     -0.458174
     11 C5          3.3790    0.6970   -2.4030 c3        1 MOL     -0.451917
     12 C6          4.0410   -0.0850   -1.3290 c         1 MOL      0.754174
     13 O3          3.6480    0.1110   -0.1540 o         1 MOL     -0.648302
     14 O4          4.8020   -0.9990   -1.6340 o         1 MOL     -0.648302
     15 H4          2.3410    2.3120   -4.0930 hn        1 MOL      0.308765
     16 H5          1.8940    1.7520   -1.3670 h1        1 MOL      0.049160
     17 H6          4.1250    1.0180   -3.1270 hc        1 MOL      0.103081
     18 H7          2.5420    0.1670   -2.8570 hc        1 MOL      0.103081
     19 N2          3.0050    4.0810   -0.6530 n         1 MOL     -0.416811
     20 C7          3.7590    5.1610   -0.0190 c3        1 MOL      0.012907
     21 C8          4.5580    4.8440    1.2410 c         1 MOL      0.524990
     22 O5          5.6330    5.3940    1.3700 o         1 MOL     -0.543690
     23 C9          2.7670    6.3180    0.1760 c3        1 MOL     -0.251078
     24 C10         2.0660    6.8910   -1.0920 c3        1 MOL      0.386769
     25 C11         1.1660    8.0920   -0.6190 c3        1 MOL     -0.121552
     26 C12         0.6200    8.8430   -1.8100 c3        1 MOL     -0.066065
     27 N3         -0.2640    7.9490   -2.5950 n4        1 MOL     -0.340935
     28 H8          2.0040    4.0950   -0.7650 hn        1 MOL      0.318463
     29 H9          4.4690    5.6100   -0.7120 h1        1 MOL      0.098669
     30 H10         3.2670    7.1420    0.6910 hc        1 MOL      0.058828
     31 H11         1.9750    5.9630    0.8400 hc        1 MOL      0.058828
     32 H12         1.4600    6.0870   -1.5070 hc        1 MOL     -0.093317
     33 H13         2.7270    7.2630   -1.8760 hc        1 MOL     -0.093317
     34 H14         1.7770    8.7930   -0.0500 hc        1 MOL      0.066677
     35 H15         0.3470    7.7140   -0.0150 hc        1 MOL      0.066677
     36 H16         1.3850    9.2380   -2.4780 hx        1 MOL      0.113398
     37 H17         0.0990    9.7040   -1.3960 hx        1 MOL      0.113398
     38 H18        -0.7260    7.3230   -1.9520 hn        1 MOL      0.327283
     39 H19        -0.9750    8.4210   -3.1250 hn        1 MOL      0.327283
     40 H20         0.2820    7.3520   -3.2040 hn        1 MOL      0.327283
     41 N4          4.2060    3.8400    2.0320 n         1 MOL     -0.383194
     42 C13         4.9520    3.2550    3.1020 c3        1 MOL      0.138235
     43 C14         5.9830    2.2670    2.5500 c         1 MOL      0.444822
     44 O6          7.1590    2.2930    2.9840 o         1 MOL     -0.553751
     45 C15         4.0790    2.5890    4.1890 c3        1 MOL     -0.539121
     46 C16         2.9810    1.6360    3.6850 c         1 MOL      0.902517
     47 O7          1.8750    1.6580    4.2490 o         1 MOL     -0.733608
     48 O8          3.1920    0.8210    2.7770 o         1 MOL     -0.733608
     49 H21         3.3190    3.3960    1.8120 hn        1 MOL      0.272976
     50 H22         5.5140    4.0540    3.5780 h1        1 MOL      0.077179
     51 H23         3.7510    3.3450    4.8890 hc        1 MOL      0.137575
     52 H24         4.8430    2.0960    4.7920 hc        1 MOL      0.137575
     53 N5          5.5690    1.4730    1.5910 n         1 MOL      0.028738
     54 C17         6.5750    0.8100    0.6870 c3        1 MOL     -0.184985
     55 C18         7.0880   -0.4510    1.3240 c         1 MOL      0.636898
     56 O9          8.2650   -0.4660    1.8050 o         1 MOL     -0.557633
     57 H25         4.6190    1.3690    1.2580 hn        1 MOL     -0.002541
     58 H26         7.4510    1.4480    0.5540 h1        1 MOL      0.086588
     59 H27         6.1540    0.6170   -0.2880 h1        1 MOL      0.086588
     60 N6          6.3390   -1.4900    1.0580 n         1 MOL     -0.541291
     61 C19         6.6460   -2.8010    1.7210 c3        1 MOL      0.147283
     62 C20         6.5370   -3.9280    0.5770 c         1 MOL      0.409727
     63 O10         6.6980   -5.1550    0.7520 o         1 MOL     -0.525178
     64 C21         5.6070   -3.0450    2.8140 c3        1 MOL     -0.328373
     65 C22         4.1640   -2.7610    2.4450 c         1 MOL      0.862826
     66 O11         3.8450   -2.8970    1.2590 o         1 MOL     -0.771798
     67 O12         3.3980   -2.1660    3.2350 o         1 MOL     -0.771798
     68 H28         5.4570   -1.3660    0.5770 hn        1 MOL      0.288995
     69 H29         7.6850   -2.7940    2.0700 h1        1 MOL      0.091991
     70 H30         5.9630   -2.4270    3.6360 hc        1 MOL      0.084377
     71 H31         5.5920   -4.0940    3.1080 hc        1 MOL      0.084377
     72 N7          6.3680   -3.4590   -0.6690 n         1 MOL     -0.348998
     73 C23         6.1540   -4.3050   -1.8160 c3        1 MOL      0.045974
     74 C24         4.7000   -4.8040   -2.0020 c         1 MOL      0.449915
     75 O13         4.4770   -5.7370   -2.7630 o         1 MOL     -0.576514
     76 H32         6.1040   -2.4800   -0.7070 hn        1 MOL      0.246992
     77 H33         6.8010   -5.1760   -1.6940 h1        1 MOL      0.060159
     78 H34         6.5300   -3.8940   -2.7560 h1        1 MOL      0.060159
     79 N8          3.6880   -4.1630   -1.4150 n         1 MOL     -0.150446
     80 C25         2.3340   -4.5740   -1.6780 c3        1 MOL     -0.319092
     81 C26         1.3280   -3.4210   -1.5890 c         1 MOL      0.740144
     82 O14         1.4490   -2.5140   -0.7720 o         1 MOL     -0.695093
     83 C27         1.8650   -5.5770   -0.5780 c3        1 MOL      0.595176
     84 C28         2.3020   -7.0050   -0.9500 c3        1 MOL     -0.580217
     85 O15         2.4920   -5.3520    0.6710 oh        1 MOL     -0.690304
     86 H35         3.8790   -3.3440   -0.8550 hn        1 MOL      0.210626
     87 H36         2.2360   -5.0230   -2.6660 h1        1 MOL      0.129266
     88 H37         0.7820   -5.4530   -0.4970 h1        1 MOL     -0.092631
     89 H38         2.7110   -4.4290    0.7880 ho        1 MOL      0.488337
     90 H39         1.9440   -7.6490   -0.1440 hc        1 MOL      0.148918
     91 H40         1.8410   -7.2490   -1.9090 hc        1 MOL      0.148918
     92 H41         3.3860   -7.0190   -1.0280 hc        1 MOL      0.148918
     93 N9          0.2380   -3.4580   -2.3340 n         1 MOL     -0.603659
     94 C29        -0.7830   -2.3650   -2.4040 c3        1 MOL      0.100961
     95 C30        -2.0220   -2.9910   -1.7160 c         1 MOL      0.616173
     96 O16        -2.4820   -4.0240   -2.2070 o         1 MOL     -0.586118
     97 C31        -1.0230   -2.0160   -3.9510 c3        1 MOL      0.160235
     98 C32         0.2000   -1.4200   -4.6400 c3        1 MOL      0.061338
     99 C33        -2.1710   -0.9890   -3.9130 c3        1 MOL     -0.276186
    100 C34         0.1640   -1.3440   -6.1910 c3        1 MOL     -0.206030
    101 H42         0.1130   -4.2910   -2.8880 hn        1 MOL      0.290204
    102 H43        -0.5570   -1.4610   -1.8370 h1        1 MOL      0.076006
    103 H44        -1.3390   -2.9130   -4.4860 hc        1 MOL     -0.003087
    104 H45         1.0930   -2.0100   -4.4470 hc        1 MOL      0.008620
    105 H46         0.3400   -0.4710   -4.1250 hc        1 MOL      0.008620
    106 H47        -2.4350   -0.6780   -4.9190 hc        1 MOL      0.035607
    107 H48        -3.0250   -1.4840   -3.4490 hc        1 MOL      0.035607
    108 H49        -1.9810   -0.1470   -3.2490 hc        1 MOL      0.035607
    109 H50         1.0540   -0.7870   -6.4650 hc        1 MOL      0.053490
    110 H51         0.1600   -2.3580   -6.6060 hc        1 MOL      0.053490
    111 H52        -0.6380   -0.7180   -6.5860 hc        1 MOL      0.053490
    112 N10        -2.6690   -2.4160   -0.6870 n         1 MOL     -0.464303
    113 C35        -4.0230   -2.7020   -0.1500 c3        1 MOL      0.130168
    114 C36        -5.1750   -1.9750   -0.8720 c         1 MOL      0.187055
    115 O17        -4.8940   -0.9780   -1.4730 o         1 MOL     -0.188102
    116 C37        -4.1780   -2.3550    1.3280 c3        1 MOL      0.083666
    117 C38        -3.0400   -2.8310    2.1980 c3        1 MOL     -0.467182
    118 O18        -4.1620   -0.9820    1.6480 oh        1 MOL     -0.407218
    119 H53        -2.2820   -1.5240   -0.4250 hn        1 MOL      0.429526
    120 H54        -4.2070   -3.7650   -0.3190 h1        1 MOL      0.061467
    121 H55        -5.0660   -2.8440    1.7380 h1        1 MOL      0.052239
    122 H56        -3.4810   -0.8180    2.2940 ho        1 MOL      0.382952
    123 H57        -3.3450   -2.5340    3.2040 hc        1 MOL      0.129709
    124 H58        -2.9910   -3.9100    2.0500 hc        1 MOL      0.129709
    125 H59        -2.1190   -2.3110    1.9430 hc        1 MOL      0.129709
    126 N11        -6.3750   -2.4490   -0.6790 n         1 MOL     -0.109264
    127 C39        -7.5970   -1.6690   -1.0430 c3        1 MOL     -0.378934
    128 C40        -7.5330   -0.2220   -0.4840 c         1 MOL      0.532128
    129 O19        -7.8420    0.6920   -1.2900 o         1 MOL     -0.524352
    130 C41        -8.9360   -2.2990   -0.5200 c3        1 MOL      0.486211
    131 C42        -9.3420   -3.7230   -0.9610 c3        1 MOL     -0.344722
    132 O20        -8.9440   -2.4270    0.8590 oh        1 MOL     -0.626989
    133 H60        -6.5540   -3.3270   -0.2050 hn        1 MOL      0.177315
    134 H61        -7.6750   -1.5740   -2.1180 h1        1 MOL      0.162472
    135 H62        -9.6850   -1.5480   -0.8010 h1        1 MOL      0.037508
    136 H63        -8.2670   -3.0930    0.9700 ho        1 MOL      0.362429
    137 H64       -10.1510   -4.1840   -0.4000 hc        1 MOL      0.090065
    138 H65        -9.6510   -3.6670   -2.0080 hc        1 MOL      0.090065
    139 H66        -8.4620   -4.3720   -1.0490 hc        1 MOL      0.090065
    140 N12        -7.0440    0.0420    0.7080 n         1 MOL     -0.248596
    141 C43        -6.9890    1.4020    1.3040 c3        1 MOL     -0.127779
    142 C44        -6.0060    2.3230    0.5480 c         1 MOL      0.509425
    143 O21        -6.2510    3.4740    0.4610 o         1 MOL     -0.508563
    144 C45        -6.6820    1.3830    2.8000 c3        1 MOL     -0.173367
    145 C46        -7.6640    0.4670    3.6100 c3        1 MOL      0.042207
    146 C47        -7.6580    0.5760    5.1220 c3        1 MOL      0.041449
    147 C48        -8.7140   -0.3180    5.7410 c3        1 MOL     -0.098637
    148 N13       -10.1220   -0.0830    5.3340 n4        1 MOL     -0.279521
    149 H67        -6.7450   -0.6810    1.3340 hn        1 MOL      0.151732
    150 H68        -7.8990    1.9620    1.0860 h1        1 MOL      0.110175
    151 H69        -6.6690    2.4130    3.1540 hc        1 MOL      0.081171
    152 H70        -5.7040    0.9260    2.9330 hc        1 MOL      0.081171
    153 H71        -7.4060   -0.5690    3.4320 hc        1 MOL      0.016016
    154 H72        -8.7000    0.5430    3.2700 hc        1 MOL      0.016016
    155 H73        -7.9570    1.5840    5.4200 hc        1 MOL      0.033158
    156 H74        -6.6270    0.4770    5.4570 hc        1 MOL      0.033158
    157 H75        -8.5700   -0.1740    6.8140 hx        1 MOL      0.109325
    158 H76        -8.4570   -1.3390    5.4740 hx        1 MOL      0.109325
    159 H77       -10.1100    0.1970    4.3610 hn        1 MOL      0.282937
    160 H78       -10.7100   -0.7970    5.7470 hn        1 MOL      0.282937
    161 H79       -10.4290    0.7720    5.7590 hn        1 MOL      0.282937
    162 N14        -4.8750    1.7490    0.0740 n         1 MOL     -0.118723
    163 C49        -3.8720    2.4210   -0.7890 c3        1 MOL     -0.288409
    164 C50        -4.3550    2.7870   -2.1600 c         1 MOL      0.563761
    165 O22        -4.1700    3.8990   -2.5050 o         1 MOL     -0.566075
    166 C51        -2.5540    1.6390   -0.8500 c3        1 MOL      0.065144
    167 C52        -1.8740    1.4850    0.4690 c3        1 MOL     -0.122578
    168 C53        -0.6110    0.6530    0.4330 c         1 MOL      0.839249
    169 O23         0.4970    1.1870    0.5710 o         1 MOL     -0.818135
    170 O24        -0.6710   -0.5810    0.4490 o         1 MOL     -0.818135
    171 H80        -4.8300    0.7380    0.1610 hn        1 MOL      0.037325
    172 H81        -3.5950    3.3580   -0.2850 h1        1 MOL      0.128184
    173 H82        -1.9250    2.1820   -1.5480 hc        1 MOL      0.033916
    174 H83        -2.7380    0.7000   -1.3690 hc        1 MOL      0.033916
    175 H84        -2.5550    0.9690    1.1480 hc        1 MOL      0.007846
    176 H85        -1.6990    2.4770    0.8730 hc        1 MOL      0.007846
    177 N15        -4.9530    1.7760   -2.7810 n         1 MOL     -0.035950
    178 C54        -5.5490    1.7440   -4.0620 c3        1 MOL     -0.370477
    179 H86        -5.7600    0.7100   -4.3380 h1        1 MOL      0.121564
    180 H87        -6.4790    2.3120   -4.0440 h1        1 MOL      0.121564
    181 H88        -4.8670    2.1820   -4.7910 h1        1 MOL      0.121564
    182 H89        -4.9280    0.8910   -2.3000 hn        1 MOL      0.081323
    183 Ca1         1.9100   -0.8950    1.3530 Ca        1 MOL      1.794808
    184 O25         0.5070   -0.6630    3.7510 oh        1 MOL     -0.847957
    185 H90         1.0070    0.0730    4.1050 ho        1 MOL      0.396646
    186 H91         0.3360   -1.2270    4.5100 ho        1 MOL      0.396646
    187 O26         0.4190   -3.0680    2.1140 oh        1 MOL     -0.847957
    188 H92         0.4730   -3.6170    2.9000 ho        1 MOL      0.396646
    189 H93        -0.5130   -2.9010    2.0000 ho        1 MOL      0.396646
@<TRIPOS>BOND
     1    1    2 1   
     2    1    4 1   
     3    1    5 1   
     4    1    6 1   
     5    2    3 2   
     6    2    7 1   
     7    7    8 1   
     8    7   15 1   
     9    8    9 1   
    10    8   11 1   
    11    8   16 1   
    12    9   10 2   
    13    9   19 1   
    14   11   12 1   
    15   11   17 1   
    16   11   18 1   
    17   12   13 1   
    18   12   14 1   
    19   19   20 1   
    20   19   28 1   
    21   20   21 1   
    22   20   23 1   
    23   20   29 1   
    24   21   22 2   
    25   21   41 1   
    26   23   24 1   
    27   23   30 1   
    28   23   31 1   
    29   24   25 1   
    30   24   32 1   
    31   24   33 1   
    32   25   26 1   
    33   25   34 1   
    34   25   35 1   
    35   26   27 1   
    36   26   36 1   
    37   26   37 1   
    38   27   38 1   
    39   27   39 1   
    40   27   40 1   
    41   41   42 1   
    42   41   49 1   
    43   42   43 1   
    44   42   45 1   
    45   42   50 1   
    46   43   44 2   
    47   43   53 1   
    48   45   46 1   
    49   45   51 1   
    50   45   52 1   
    51   46   47 1   
    52   46   48 1   
    53   53   54 1   
    54   53   57 1   
    55   54   55 1   
    56   54   58 1   
    57   54   59 1   
    58   55   56 2   
    59   55   60 1   
    60   60   61 1   
    61   60   68 1   
    62   61   62 1   
    63   61   64 1   
    64   61   69 1   
    65   62   63 2   
    66   62   72 1   
    67   64   65 1   
    68   64   70 1   
    69   64   71 1   
    70   65   66 1   
    71   65   67 1   
    72   72   73 1   
    73   72   76 1   
    74   73   74 1   
    75   73   77 1   
    76   73   78 1   
    77   74   75 2   
    78   74   79 1   
    79   79   80 1   
    80   79   86 1   
    81   80   81 1   
    82   80   83 1   
    83   80   87 1   
    84   81   82 2   
    85   81   93 1   
    86   83   84 1   
    87   83   85 1   
    88   83   88 1   
    89   84   90 1   
    90   84   91 1   
    91   84   92 1   
    92   85   89 1   
    93   93   94 1   
    94   93  101 1   
    95   94   95 1   
    96   94   97 1   
    97   94  102 1   
    98   95   96 2   
    99   95  112 1   
   100   97   98 1   
   101   97   99 1   
   102   97  103 1   
   103   98  100 1   
   104   98  104 1   
   105   98  105 1   
   106   99  106 1   
   107   99  107 1   
   108   99  108 1   
   109  100  109 1   
   110  100  110 1   
   111  100  111 1   
   112  112  113 1   
   113  112  119 1   
   114  113  114 1   
   115  113  116 1   
   116  113  120 1   
   117  114  115 2   
   118  114  126 1   
   119  116  117 1   
   120  116  118 1   
   121  116  121 1   
   122  117  123 1   
   123  117  124 1   
   124  117  125 1   
   125  118  122 1   
   126  126  127 1   
   127  126  133 1   
   128  127  128 1   
   129  127  130 1   
   130  127  134 1   
   131  128  129 2   
   132  128  140 1   
   133  130  131 1   
   134  130  132 1   
   135  130  135 1   
   136  131  137 1   
   137  131  138 1   
   138  131  139 1   
   139  132  136 1   
   140  140  141 1   
   141  140  149 1   
   142  141  142 1   
   143  141  144 1   
   144  141  150 1   
   145  142  143 2   
   146  142  162 1   
   147  144  145 1   
   148  144  151 1   
   149  144  152 1   
   150  145  146 1   
   151  145  153 1   
   152  145  154 1   
   153  146  147 1   
   154  146  155 1   
   155  146  156 1   
   156  147  148 1   
   157  147  157 1   
   158  147  158 1   
   159  148  159 1   
   160  148  160 1   
   161  148  161 1   
   162  162  163 1   
   163  162  171 1   
   164  163  164 1   
   165  163  166 1   
   166  163  172 1   
   167  164  165 2   
   168  164  177 1   
   169  166  167 1   
   170  166  173 1   
   171  166  174 1   
   172  167  168 1   
   173  167  175 1   
   174  167  176 1   
   175  168  169 1   
   176  168  170 1   
   177  177  178 1   
   178  177  182 1   
   179  178  179 1   
   180  178  180 1   
   181  178  181 1   
   182  184  185 1   
   183  184  186 1   
   184  187  188 1   
   185  187  189 1   
@<TRIPOS>SUBSTRUCTURE
     1 MOL         1 TEMP              0 ****  ****    0 ROOT
