@<TRIPOS>MOLECULE
MOL
  175   173     1     0     0
SMALL
resp


@<TRIPOS>ATOM
      1 C1         -0.2280   -3.5220    5.9000 c3        1 MOL     -0.367235
      2 C2          0.2990   -3.4750    4.4820 c         1 MOL      0.740807
      3 O1         -0.4340   -3.7330    3.5320 o         1 MOL     -0.574148
      4 H1         -0.8020   -4.4380    6.0440 hc        1 MOL      0.093586
      5 H2          0.6070   -3.5030    6.6000 hc        1 MOL      0.093586
      6 H3         -0.8710   -2.6590    6.0780 hc        1 MOL      0.093586
      7 N1          1.5690   -3.0920    4.1970 n         1 MOL     -0.661145
      8 C3          2.1990   -3.0930    2.8380 c3        1 MOL      0.184804
      9 C4          2.0670   -4.4350    2.0460 c         1 MOL      0.550332
     10 O2          2.3800   -5.5160    2.5690 o         1 MOL     -0.582329
     11 C5          3.6660   -2.7040    3.0380 c3        1 MOL     -0.232089
     12 C6          4.2960   -2.6470    1.6380 c         1 MOL      0.588323
     13 O3          3.8700   -1.7280    0.8880 o         1 MOL     -0.551380
     14 O4          5.0750   -3.5410    1.2940 o         1 MOL     -0.551380
     15 H4          2.1800   -2.8300    4.9600 hn        1 MOL      0.316116
     16 H5          1.6690   -2.3300    2.2660 h1        1 MOL      0.048626
     17 H6          4.2360   -3.2960    3.7480 hc        1 MOL      0.034832
     18 H7          3.6780   -1.6640    3.3680 hc        1 MOL      0.034832
     19 N2          1.7550   -4.3130    0.7690 n         1 MOL     -0.412708
     20 C7          1.6200   -5.2520   -0.3250 c3        1 MOL      0.410053
     21 C8          2.6930   -5.1130   -1.4290 c         1 MOL      0.294481
     22 O5          2.7680   -5.9900   -2.2720 o         1 MOL     -0.557158
     23 C9          0.2330   -5.0730   -0.7990 c3        1 MOL     -0.304411
     24 H8          1.6770   -3.3790    0.3790 hn        1 MOL      0.338273
     25 H9          1.7010   -6.2420    0.1150 h1        1 MOL     -0.014689
     26 H10         0.0130   -4.0990   -1.2390 hc        1 MOL      0.064696
     27 H11         0.1550   -5.8360   -1.5750 hc        1 MOL      0.064696
     28 H12        -0.4870   -5.3520   -0.0370 hc        1 MOL      0.064696
     29 N3          3.4600   -4.0100   -1.5390 n         1 MOL      0.067574
     30 C10         4.3440   -3.6480   -2.6180 c3        1 MOL      0.046319
     31 C11         5.7100   -2.9170   -2.3250 c         1 MOL      0.387130
     32 O6          6.5260   -2.7710   -3.2360 o         1 MOL     -0.538315
     33 C12         3.5200   -2.7830   -3.6440 c3        1 MOL     -0.190587
     34 C13         2.6810   -1.6400   -3.0260 c         1 MOL      0.719078
     35 O7          3.1230   -1.1790   -1.9360 o         1 MOL     -0.680892
     36 O8          1.6100   -1.3220   -3.5400 o         1 MOL     -0.680892
     37 H13         3.4910   -3.3760   -0.7580 hn        1 MOL     -0.156692
     38 H14         4.6730   -4.5360   -3.1660 h1        1 MOL      0.062693
     39 H15         2.7550   -3.4200   -4.0780 hc        1 MOL      0.027594
     40 H16         4.1730   -2.3480   -4.3940 hc        1 MOL      0.027594
     41 N4          6.0030   -2.6640   -1.0520 n         1 MOL     -0.173866
     42 C14         7.2060   -1.9640   -0.7040 c3        1 MOL     -0.065356
     43 C15         7.3810   -0.4860   -1.0770 c         1 MOL      0.341743
     44 O9          8.5570    0.0390   -1.0150 o         1 MOL     -0.577718
     45 H17         5.2840   -2.8170   -0.3630 hn        1 MOL      0.090005
     46 H18         8.1170   -2.4640   -1.0240 h1        1 MOL      0.082426
     47 H19         7.3390   -2.0400    0.3850 h1        1 MOL      0.082426
     48 N5          6.3530    0.2000   -1.6000 n         1 MOL     -0.136148
     49 C16         6.3600    1.4660   -2.3030 c3        1 MOL     -0.063828
     50 C17         6.5440    2.7610   -1.4520 c         1 MOL      0.522240
     51 O10         7.0320    3.6190   -2.1130 o         1 MOL     -0.541354
     52 C18         5.1130    1.4600   -3.1710 c3        1 MOL     -0.120734
     53 C19         3.8160    1.7500   -2.5380 c         1 MOL      0.632821
     54 N6          2.7970    2.0110   -3.3110 n         1 MOL     -0.636089
     55 O11         3.6850    1.5230   -1.3880 o         1 MOL     -0.655940
     56 H20         5.4760   -0.2900   -1.7150 hn        1 MOL      0.256042
     57 H21         7.1860    1.4040   -3.0040 h1        1 MOL      0.101032
     58 H22         5.0120    0.4920   -3.6570 hc        1 MOL      0.034554
     59 H23         5.2600    2.1930   -3.9700 hc        1 MOL      0.034554
     60 H24         2.9210    2.0280   -4.3100 hn        1 MOL      0.319668
     61 H25         1.8870    1.9680   -2.8690 hn        1 MOL      0.319668
     62 N7          6.2940    2.6890   -0.1570 n         1 MOL     -0.168753
     63 C20         6.5480    3.7210    0.8270 c3        1 MOL     -0.205855
     64 C21         5.3110    4.5200    1.2590 c         1 MOL      0.624320
     65 O12         5.5190    5.5840    1.8290 o         1 MOL     -0.606464
     66 H26         5.8820    1.8240    0.1500 hn        1 MOL      0.119573
     67 H27         7.1560    4.4180    0.2530 h1        1 MOL      0.096430
     68 H28         7.0230    3.3780    1.7480 h1        1 MOL      0.096430
     69 N8          4.1230    3.9950    0.9810 n         1 MOL     -0.285539
     70 C22         2.8270    4.6910    1.1320 c3        1 MOL     -0.309893
     71 C23         1.7390    3.6520    1.3150 c         1 MOL      0.682308
     72 O13         1.9210    2.5190    0.8750 o         1 MOL     -0.494064
     73 C24         2.4430    5.5460   -0.1370 c3        1 MOL      0.707298
     74 C25         3.0660    6.8750   -0.1550 c3        1 MOL     -0.424010
     75 O14         2.7080    4.8780   -1.3920 oh        1 MOL     -0.642039
     76 H29         4.0110    3.0680    0.6060 hn        1 MOL      0.219716
     77 H30         2.7810    5.3050    2.0290 h1        1 MOL      0.105111
     78 H31         1.3940    5.8240   -0.1240 h1        1 MOL     -0.072101
     79 H32         1.9880    4.2580   -1.4840 ho        1 MOL      0.352233
     80 H33         4.1380    6.7010   -0.1240 hc        1 MOL      0.093745
     81 H34         2.7690    7.3910   -1.0680 hc        1 MOL      0.093745
     82 H35         2.7140    7.4800    0.6830 hc        1 MOL      0.093745
     83 N9          0.5860    3.9950    1.9200 n         1 MOL     -0.677365
     84 C26        -0.6310    3.1170    1.9760 c3        1 MOL     -0.125825
     85 C27        -1.4200    3.2970    0.6760 c         1 MOL      0.655281
     86 O15        -1.5490    4.3910    0.1680 o         1 MOL     -0.579988
     87 C28        -1.4770    3.4360    3.2290 c3        1 MOL      0.329182
     88 C29        -0.5680    3.3440    4.4850 c3        1 MOL      0.156018
     89 C30        -2.7140    2.5140    3.4650 c3        1 MOL     -0.590202
     90 C31        -1.2770    3.7650    5.7400 c3        1 MOL      0.014479
     91 H36         0.4000    4.9260    2.2660 hn        1 MOL      0.332853
     92 H37        -0.2950    2.0790    2.0390 h1        1 MOL      0.086246
     93 H38        -1.8420    4.4600    3.1910 hc        1 MOL     -0.032361
     94 H39         0.2380    4.0620    4.3380 hc        1 MOL     -0.046743
     95 H40        -0.1980    2.3420    4.6950 hc        1 MOL     -0.046743
     96 H41        -3.4660    2.5750    2.6720 hc        1 MOL      0.129952
     97 H42        -2.2780    1.5260    3.5770 hc        1 MOL      0.129952
     98 H43        -3.2240    2.6500    4.4220 hc        1 MOL      0.129952
     99 H44        -0.5150    3.8070    6.5270 hc        1 MOL     -0.022442
    100 H45        -1.5890    4.8050    5.6540 hc        1 MOL     -0.022442
    101 H46        -2.1180    3.1500    6.0560 hc        1 MOL     -0.022442
    102 N10        -2.0490    2.2650    0.1730 n         1 MOL     -0.641239
    103 C32        -2.7130    2.0480   -1.0790 c3        1 MOL      0.438279
    104 C33        -4.0920    1.4480   -0.8510 c         1 MOL      0.321360
    105 O16        -4.3320    0.7800    0.1600 o         1 MOL     -0.266528
    106 C34        -1.9440    1.1370   -2.0020 c3        1 MOL     -0.573734
    107 C35        -0.4930    1.6170   -2.2480 c         1 MOL      0.899555
    108 O17         0.4530    1.0610   -1.6040 o         1 MOL     -0.705281
    109 O18        -0.2900    2.5170   -3.0720 o         1 MOL     -0.705281
    110 H47        -1.9620    1.3840    0.6520 hn        1 MOL      0.399171
    111 H48        -2.7780    2.9980   -1.6210 h1        1 MOL      0.011101
    112 H49        -2.4390    1.2340   -2.9720 hc        1 MOL      0.134212
    113 H50        -2.0070    0.1020   -1.6460 hc        1 MOL      0.134212
    114 N11        -5.0300    1.6980   -1.7590 n         1 MOL     -0.713051
    115 C36        -6.4350    1.3650   -1.4540 c3        1 MOL      0.381262
    116 C37        -6.5890   -0.0960   -1.1910 c         1 MOL      0.317784
    117 O19        -7.3750   -0.3930   -0.2650 o         1 MOL     -0.477723
    118 C38        -7.4140    1.9240   -2.4920 c3        1 MOL     -0.222035
    119 C39        -8.8770    1.7640   -2.2140 ca        1 MOL      0.080202
    120 C40        -9.3750    2.0440   -0.9150 ca        1 MOL     -0.129727
    121 C41        -9.8010    1.2930   -3.1610 ca        1 MOL     -0.129727
    122 C42       -10.7410    1.8440   -0.5550 ca        1 MOL     -0.164521
    123 C43       -11.1800    1.2420   -2.8350 ca        1 MOL     -0.164521
    124 C44       -11.6520    1.4010   -1.5230 ca        1 MOL     -0.056877
    125 H51        -4.8260    2.1450   -2.6380 hn        1 MOL      0.351486
    126 H52        -6.7080    1.7660   -0.4830 h1        1 MOL      0.075296
    127 H53        -7.2100    1.5050   -3.4730 hc        1 MOL      0.074044
    128 H54        -7.3620    3.0120   -2.5840 hc        1 MOL      0.074044
    129 H55        -8.7380    2.5060   -0.1790 ha        1 MOL      0.104363
    130 H56        -9.4930    0.9840   -4.1480 ha        1 MOL      0.104363
    131 H57       -11.2080    2.1090    0.3880 ha        1 MOL      0.116341
    132 H58       -11.8420    0.8130   -3.5640 ha        1 MOL      0.116341
    133 H59       -12.7000    1.4440   -1.2710 ha        1 MOL      0.091265
    134 N12        -5.9030   -1.0840   -1.8460 n         1 MOL      0.003418
    135 C45        -6.1100   -2.4950   -1.5210 c3        1 MOL     -0.036633
    136 C46        -5.6590   -2.9600   -0.1210 c         1 MOL      0.223847
    137 O20        -6.0220   -3.9230    0.4740 o         1 MOL     -0.483434
    138 C47        -5.3160   -3.2980   -2.5800 c3        1 MOL      0.035405
    139 C48        -5.4730   -2.3770   -3.7290 c3        1 MOL      0.004637
    140 C49        -5.4020   -0.8980   -3.2370 c3        1 MOL     -0.078899
    141 H60        -7.1710   -2.7360   -1.6490 h1        1 MOL      0.067052
    142 H61        -4.2690   -3.5170   -2.3780 hc        1 MOL      0.034495
    143 H62        -5.7910   -4.2510   -2.8090 hc        1 MOL      0.034495
    144 H63        -4.7200   -2.7100   -4.4400 hc        1 MOL      0.004850
    145 H64        -6.4760   -2.5070   -4.1400 hc        1 MOL      0.004850
    146 H65        -4.4920   -0.3480   -3.4540 h1        1 MOL      0.044156
    147 H66        -6.2170   -0.3920   -3.7680 h1        1 MOL      0.044156
    148 N13        -4.7560   -2.1400    0.4170 n         1 MOL      0.026473
    149 C50        -4.2030   -2.2520    1.7930 c3        1 MOL     -0.212306
    150 C51        -4.9990   -1.5640    2.7670 c         1 MOL      0.594863
    151 O21        -5.1600   -1.9440    3.8840 o         1 MOL     -0.598882
    152 C52        -2.8090   -1.6040    1.8950 c3        1 MOL      0.043261
    153 C53        -1.8370   -2.2580    0.8920 c3        1 MOL     -0.102877
    154 C54        -0.5960   -1.3940    0.7270 c         1 MOL      0.814458
    155 O22         0.3550   -1.8570    0.1190 o         1 MOL     -0.816994
    156 O23        -0.4070   -0.2450    1.1950 o         1 MOL     -0.816994
    157 H67        -4.5350   -1.3770   -0.2100 hn        1 MOL      0.083748
    158 H68        -4.0740   -3.3230    1.9670 h1        1 MOL      0.128732
    159 H69        -2.4160   -1.7480    2.9070 hc        1 MOL      0.004130
    160 H70        -2.8810   -0.5460    1.6310 hc        1 MOL      0.004130
    161 H71        -2.2820   -2.3670   -0.0970 hc        1 MOL      0.045443
    162 H72        -1.4950   -3.2270    1.2430 hc        1 MOL      0.045443
    163 N14        -5.5620   -0.3770    2.4680 n         1 MOL     -0.112173
    164 C55        -6.5790    0.3730    3.2370 c3        1 MOL     -0.332463
    165 H73        -6.9500   -0.2490    4.0520 h1        1 MOL      0.117766
    166 H74        -6.1300    1.2770    3.6470 h1        1 MOL      0.117766
    167 H75        -7.4070    0.6420    2.5800 h1        1 MOL      0.117766
    168 H76        -5.3770   -0.0650    1.5260 hn        1 MOL      0.037286
    169 Ca1         2.0470   -0.0050    0.1460 Ca        1 MOL      1.654218
    170 O24         4.3540    0.6470    1.4130 oh        1 MOL     -0.779220
    171 H77         4.6560   -0.2560    1.3650 ho        1 MOL      0.380278
    172 H78         4.8930    1.0480    2.0910 ho        1 MOL      0.380278
    173 O25         1.8880    0.3460    2.7850 oh        1 MOL     -0.779220
    174 H79         0.9420    0.4190    2.9310 ho        1 MOL      0.380278
    175 H80         2.2370    0.0210    3.6180 ho        1 MOL      0.380278
@<TRIPOS>BOND
     1    1    2 1   
     2    1    4 1   
     3    1    5 1   
     4    1    6 1   
     5    2    3 2   
     6    2    7 1   
     7    7    8 1   
     8    7   15 1   
     9    8    9 1   
    10    8   11 1   
    11    8   16 1   
    12    9   10 2   
    13    9   19 1   
    14   11   12 1   
    15   11   17 1   
    16   11   18 1   
    17   12   13 1   
    18   12   14 1   
    19   19   20 1   
    20   19   24 1   
    21   20   21 1   
    22   20   23 1   
    23   20   25 1   
    24   21   22 2   
    25   21   29 1   
    26   23   26 1   
    27   23   27 1   
    28   23   28 1   
    29   29   30 1   
    30   29   37 1   
    31   30   31 1   
    32   30   33 1   
    33   30   38 1   
    34   31   32 2   
    35   31   41 1   
    36   33   34 1   
    37   33   39 1   
    38   33   40 1   
    39   34   35 1   
    40   34   36 1   
    41   41   42 1   
    42   41   45 1   
    43   42   43 1   
    44   42   46 1   
    45   42   47 1   
    46   43   44 2   
    47   43   48 1   
    48   48   49 1   
    49   48   56 1   
    50   49   50 1   
    51   49   52 1   
    52   49   57 1   
    53   50   51 2   
    54   50   62 1   
    55   52   53 1   
    56   52   58 1   
    57   52   59 1   
    58   53   54 1   
    59   53   55 2   
    60   54   60 1   
    61   54   61 1   
    62   62   63 1   
    63   62   66 1   
    64   63   64 1   
    65   63   67 1   
    66   63   68 1   
    67   64   65 2   
    68   64   69 1   
    69   69   70 1   
    70   69   76 1   
    71   70   71 1   
    72   70   73 1   
    73   70   77 1   
    74   71   72 2   
    75   71   83 1   
    76   73   74 1   
    77   73   75 1   
    78   73   78 1   
    79   74   80 1   
    80   74   81 1   
    81   74   82 1   
    82   75   79 1   
    83   83   84 1   
    84   83   91 1   
    85   84   85 1   
    86   84   87 1   
    87   84   92 1   
    88   85   86 2   
    89   85  102 1   
    90   87   88 1   
    91   87   89 1   
    92   87   93 1   
    93   88   90 1   
    94   88   94 1   
    95   88   95 1   
    96   89   96 1   
    97   89   97 1   
    98   89   98 1   
    99   90   99 1   
   100   90  100 1   
   101   90  101 1   
   102  102  103 1   
   103  102  110 1   
   104  103  104 1   
   105  103  106 1   
   106  103  111 1   
   107  104  105 2   
   108  104  114 1   
   109  106  107 1   
   110  106  112 1   
   111  106  113 1   
   112  107  108 1   
   113  107  109 1   
   114  114  115 1   
   115  114  125 1   
   116  115  116 1   
   117  115  118 1   
   118  115  126 1   
   119  116  117 2   
   120  116  134 1   
   121  118  119 1   
   122  118  127 1   
   123  118  128 1   
   124  119  120 ar  
   125  119  121 ar  
   126  120  122 ar  
   127  120  129 1   
   128  121  123 ar  
   129  121  130 1   
   130  122  124 ar  
   131  122  131 1   
   132  123  124 ar  
   133  123  132 1   
   134  124  133 1   
   135  134  135 1   
   136  134  140 1   
   137  135  136 1   
   138  135  138 1   
   139  135  141 1   
   140  136  137 2   
   141  136  148 1   
   142  138  139 1   
   143  138  142 1   
   144  138  143 1   
   145  139  140 1   
   146  139  144 1   
   147  139  145 1   
   148  140  146 1   
   149  140  147 1   
   150  148  149 1   
   151  148  157 1   
   152  149  150 1   
   153  149  152 1   
   154  149  158 1   
   155  150  151 2   
   156  150  163 1   
   157  152  153 1   
   158  152  159 1   
   159  152  160 1   
   160  153  154 1   
   161  153  161 1   
   162  153  162 1   
   163  154  155 1   
   164  154  156 1   
   165  163  164 1   
   166  163  168 1   
   167  164  165 1   
   168  164  166 1   
   169  164  167 1   
   170  170  171 1   
   171  170  172 1   
   172  173  174 1   
   173  173  175 1   
@<TRIPOS>SUBSTRUCTURE
     1 MOL         1 TEMP              0 ****  ****    0 ROOT
