@<TRIPOS>MOLECULE
MOL
  169   169     1     0     0
SMALL
resp


@<TRIPOS>ATOM
      1 C1          0.2030    4.1210    5.5620 c3        1 MOL     -0.430558
      2 C2         -0.1660    4.0630    4.0710 c         1 MOL      0.711710
      3 O1          0.7130    4.2250    3.2480 o         1 MOL     -0.568123
      4 H1         -0.7030    4.0320    6.1640 hc        1 MOL      0.101471
      5 H2          0.8790    3.3010    5.8020 hc        1 MOL      0.101471
      6 H3          0.6900    5.0710    5.7790 hc        1 MOL      0.101471
      7 N1         -1.3820    3.7480    3.7640 n         1 MOL     -0.518501
      8 C3         -1.8240    3.3020    2.4600 c3        1 MOL     -0.027072
      9 C4         -2.2400    4.5100    1.6190 c         1 MOL      0.654494
     10 O2         -2.8710    5.4480    2.1130 o         1 MOL     -0.618778
     11 C5         -2.9380    2.2120    2.6160 c3        1 MOL     -0.121015
     12 C6         -3.1170    1.4040    1.3280 c         1 MOL      0.648824
     13 O3         -3.5590    0.2610    1.3930 o         1 MOL     -0.721279
     14 O4         -3.0590    1.9320    0.1970 o         1 MOL     -0.721279
     15 H4         -2.0410    3.6100    4.5080 hn        1 MOL      0.291745
     16 H5         -0.9170    2.9090    2.0110 h1        1 MOL      0.133876
     17 H6         -3.8640    2.6890    2.9410 hc        1 MOL      0.053788
     18 H7         -2.6250    1.5590    3.4300 hc        1 MOL      0.053788
     19 N2         -1.9880    4.4350    0.3390 n         1 MOL     -0.587773
     20 C7         -2.1910    5.4700   -0.6620 c3        1 MOL      0.326364
     21 C8         -3.2020    5.1290   -1.8200 c         1 MOL      0.640560
     22 O5         -3.4190    6.0370   -2.6560 o         1 MOL     -0.613001
     23 C9         -0.8240    5.9110   -1.2460 c3        1 MOL     -0.359761
     24 H8         -1.5190    3.5980   -0.0020 hn        1 MOL      0.340973
     25 H9         -2.6770    6.3400   -0.2060 h1        1 MOL      0.004666
     26 H10        -1.0310    6.6030   -2.0620 hc        1 MOL      0.081960
     27 H11        -0.3380    6.4350   -0.4170 hc        1 MOL      0.081960
     28 H12        -0.3440    5.0380   -1.6780 hc        1 MOL      0.081960
     29 N3         -3.8820    4.0090   -1.7160 n         1 MOL     -0.722578
     30 C10        -5.0740    3.6620   -2.5300 c3        1 MOL      0.342697
     31 C11        -6.2760    3.2120   -1.5680 c         1 MOL      0.286345
     32 O6         -7.4250    3.5280   -1.9490 o         1 MOL     -0.534667
     33 C12        -4.6490    2.6300   -3.5980 c3        1 MOL     -0.243771
     34 C13        -3.8630    1.4570   -2.9650 c         1 MOL      0.753359
     35 O7         -4.2930    0.6440   -2.1490 o         1 MOL     -0.743527
     36 O8         -2.5890    1.3710   -3.1650 o         1 MOL     -0.743527
     37 H13        -3.4880    3.2710   -1.1590 hn        1 MOL      0.442115
     38 H14        -5.5050    4.5330   -3.0260 h1        1 MOL      0.031161
     39 H15        -3.9790    3.1640   -4.2730 hc        1 MOL      0.055178
     40 H16        -5.4830    2.2300   -4.1710 hc        1 MOL      0.055178
     41 N4         -6.0310    2.4790   -0.4920 n         1 MOL     -0.006849
     42 C14        -6.9630    1.8260    0.4560 c3        1 MOL     -0.365600
     43 C15        -7.4690    0.3940    0.0420 c         1 MOL      0.634994
     44 O9         -8.5920   -0.0100    0.4110 o         1 MOL     -0.624272
     45 H17        -5.0750    2.3630   -0.1900 hn        1 MOL      0.098824
     46 H18        -7.9020    2.3470    0.5900 h1        1 MOL      0.145482
     47 H19        -6.4140    1.6710    1.3790 h1        1 MOL      0.145482
     48 N5         -6.6740   -0.3290   -0.7630 n         1 MOL     -0.240205
     49 C16        -7.0670   -1.6720   -1.2960 c3        1 MOL     -0.071282
     50 C17        -6.8660   -2.8800   -0.3090 c         1 MOL      0.453968
     51 O10        -7.1410   -4.0270   -0.6710 o         1 MOL     -0.507513
     52 C18        -6.2720   -1.8950   -2.6100 c3        1 MOL     -0.223709
     53 C19        -4.8240   -2.3020   -2.2840 c         1 MOL      0.656465
     54 N6         -4.1900   -3.1760   -3.0480 n         1 MOL     -0.720717
     55 O11        -4.2390   -1.9350   -1.2790 o         1 MOL     -0.631823
     56 H20        -5.7540    0.0080   -1.0080 hn        1 MOL      0.175615
     57 H21        -8.1360   -1.6280   -1.5030 h1        1 MOL      0.118760
     58 H22        -6.1480   -0.9690   -3.1760 hc        1 MOL      0.087091
     59 H23        -6.7100   -2.6870   -3.2090 hc        1 MOL      0.087091
     60 H24        -4.6500   -3.4900   -3.8950 hn        1 MOL      0.353851
     61 H25        -3.2790   -3.4320   -2.7120 hn        1 MOL      0.353851
     62 N7         -6.4570   -2.5410    0.8990 n         1 MOL     -0.284682
     63 C20        -6.2640   -3.5730    1.9440 c3        1 MOL     -0.110979
     64 C21        -4.9530   -4.3750    1.9200 c         1 MOL      0.500008
     65 O12        -4.8210   -5.4280    2.5800 o         1 MOL     -0.582801
     66 H26        -6.5870   -1.5700    1.1550 hn        1 MOL      0.281059
     67 H27        -7.1000   -4.2590    2.0250 h1        1 MOL      0.089356
     68 H28        -6.2960   -2.9520    2.8380 h1        1 MOL      0.089356
     69 N8         -3.9200   -4.0370    1.1040 n         1 MOL     -0.197693
     70 C22        -2.5950   -4.6740    1.0920 c3        1 MOL     -0.252562
     71 C23        -1.5590   -3.5570    1.0410 c         1 MOL      0.568059
     72 O13        -1.7820   -2.5470    0.3440 o         1 MOL     -0.607491
     73 C24        -2.4050   -5.7220   -0.0040 c3        1 MOL      0.540131
     74 C25        -2.9190   -7.0760    0.5360 c3        1 MOL     -0.535135
     75 O14        -2.9840   -5.5240   -1.2610 oh        1 MOL     -0.596647
     76 H29        -4.0290   -3.2940    0.4300 hn        1 MOL      0.248745
     77 H30        -2.4640   -5.2380    2.0130 h1        1 MOL      0.143029
     78 H31        -1.3440   -5.9280   -0.1370 h1        1 MOL     -0.041659
     79 H32        -2.3550   -4.9710   -1.7360 ho        1 MOL      0.376835
     80 H33        -2.4970   -7.2450    1.5270 hc        1 MOL      0.136795
     81 H34        -4.0080   -6.9820    0.5650 hc        1 MOL      0.136795
     82 H35        -2.6970   -7.8640   -0.1810 hc        1 MOL      0.136795
     83 N9         -0.5210   -3.6270    1.8870 n         1 MOL     -0.445956
     84 C26         0.6670   -2.7370    1.8100 c3        1 MOL      0.177837
     85 C27         1.4700   -3.0740    0.5100 c         1 MOL      0.310996
     86 O15         1.8740   -4.2250    0.2450 o         1 MOL     -0.551461
     87 C28         1.5400   -2.8550    3.0480 c3        1 MOL     -0.083178
     88 C29         0.9300   -1.8280    4.0470 c3        1 MOL      0.084434
     89 C30         3.0140   -2.7190    2.7530 c3        1 MOL     -0.103644
     90 C31         1.5820   -1.7490    5.3330 c3        1 MOL     -0.035069
     91 H36        -0.4470   -4.3490    2.5790 hn        1 MOL      0.242200
     92 H37         0.4000   -1.6830    1.7320 h1        1 MOL      0.007297
     93 H38         1.5420   -3.8210    3.5600 hc        1 MOL      0.043330
     94 H39        -0.1460   -1.9480    4.1100 hc        1 MOL     -0.006871
     95 H40         0.9810   -0.8460    3.5740 hc        1 MOL     -0.006871
     96 H41         3.1790   -1.8520    2.1150 hc        1 MOL      0.015896
     97 H42         3.6570   -2.7260    3.6320 hc        1 MOL      0.015896
     98 H43         3.3430   -3.5500    2.1320 hc        1 MOL      0.015896
     99 H44         2.5610   -1.2950    5.2360 hc        1 MOL     -0.004728
    100 H45         0.9630   -1.1520    6.0080 hc        1 MOL     -0.004728
    101 H46         1.6240   -2.7470    5.7850 hc        1 MOL     -0.004728
    102 N10         1.8020   -2.0100   -0.2560 n         1 MOL     -0.023662
    103 C32         2.8060   -1.9480   -1.3620 c3        1 MOL      0.141117
    104 C33         4.1870   -1.5070   -0.9350 c         1 MOL      0.322475
    105 O16         4.2830   -0.7420    0.0180 o         1 MOL     -0.220543
    106 C34         2.2060   -1.1220   -2.5400 c3        1 MOL     -0.126177
    107 C35         0.7980   -1.5300   -2.9230 c         1 MOL      0.642689
    108 O17        -0.2040   -1.2080   -2.2880 o         1 MOL     -0.709364
    109 O18         0.7160   -2.3840   -3.8450 o         1 MOL     -0.709364
    110 H47         1.5360   -1.0740    0.0070 hn        1 MOL      0.171933
    111 H48         2.9390   -2.9730   -1.7050 h1        1 MOL      0.016704
    112 H49         2.9390   -1.0900   -3.3480 hc        1 MOL      0.023094
    113 H50         2.1670   -0.0850   -2.1930 hc        1 MOL      0.023094
    114 N11         5.2840   -1.7950   -1.6710 n         1 MOL     -0.652093
    115 C36         6.6620   -1.3670   -1.2130 c3        1 MOL      0.454568
    116 C37         6.7210    0.1850   -0.7790 c         1 MOL      0.276858
    117 O19         7.2450    0.3790    0.3340 o         1 MOL     -0.499150
    118 C38         7.6520   -1.7530   -2.3220 c3        1 MOL     -0.277021
    119 C39         9.1130   -1.6710   -1.9630 ca        1 MOL      0.082817
    120 C40         9.5880   -2.1570   -0.7510 ca        1 MOL     -0.119995
    121 C41         9.9980   -1.0340   -2.8280 ca        1 MOL     -0.119995
    122 C42        10.9130   -2.1580   -0.4500 ca        1 MOL     -0.135774
    123 C43        11.3410   -1.0450   -2.5360 ca        1 MOL     -0.135774
    124 C44        11.8590   -1.5270   -1.3110 ca        1 MOL     -0.088341
    125 H51         5.1240   -2.4290   -2.4340 hn        1 MOL      0.334429
    126 H52         6.9760   -1.9800   -0.3680 h1        1 MOL      0.030311
    127 H53         7.4780   -1.1380   -3.2070 hc        1 MOL      0.074278
    128 H54         7.5210   -2.8100   -2.5200 hc        1 MOL      0.074278
    129 H55         8.9430   -2.8060   -0.1800 ha        1 MOL      0.104739
    130 H56         9.5780   -0.7190   -3.7660 ha        1 MOL      0.104739
    131 H57        11.2420   -2.7430    0.4030 ha        1 MOL      0.103859
    132 H58        11.9820   -0.7290   -3.3370 ha        1 MOL      0.103859
    133 H59        12.9190   -1.5050   -1.1330 ha        1 MOL      0.099563
    134 N12         6.1050    1.1790   -1.4900 n         1 MOL     -0.034726
    135 C45         6.2360    2.6030   -0.9650 c3        1 MOL     -0.062403
    136 C46         5.4590    2.8510    0.4010 c         1 MOL      0.405276
    137 O20         5.7880    3.8160    1.0820 o         1 MOL     -0.521436
    138 C47         5.7480    3.4360   -2.1770 c3        1 MOL     -0.062191
    139 C48         5.9620    2.5670   -3.3810 c3        1 MOL      0.056380
    140 C49         5.6460    1.2000   -2.8740 c3        1 MOL     -0.113648
    141 H60         7.3020    2.7270   -0.7720 h1        1 MOL      0.084866
    142 H61         4.6930    3.6900   -2.0670 hc        1 MOL      0.048322
    143 H62         6.2390    4.4010   -2.2700 hc        1 MOL      0.048322
    144 H63         5.3280    2.8500   -4.2190 hc        1 MOL      0.002863
    145 H64         6.9680    2.6230   -3.7850 hc        1 MOL      0.002863
    146 H65         4.5670    1.0760   -2.8910 h1        1 MOL      0.069611
    147 H66         6.0510    0.4730   -3.5810 h1        1 MOL      0.069611
    148 N13         4.4810    1.9920    0.7180 n         1 MOL     -0.146686
    149 C50         3.6700    1.9270    1.9280 c3        1 MOL     -0.021797
    150 C51         4.3920    1.1690    3.0170 c         1 MOL      0.494985
    151 O21         4.3790    1.6630    4.0980 o         1 MOL     -0.587206
    152 C52         2.2760    1.3280    1.6840 c3        1 MOL     -0.095124
    153 C53         1.6170    2.0100    0.4930 c3        1 MOL     -0.043724
    154 C54         0.3580    1.3830    0.0110 c         1 MOL      0.478348
    155 O22        -0.0570    0.2620    0.4370 o         1 MOL     -0.639898
    156 O23        -0.4040    1.9470   -0.7620 o         1 MOL     -0.639898
    157 H67         4.3510    1.1960    0.1160 hn        1 MOL      0.075879
    158 H68         3.4250    2.9310    2.2870 h1        1 MOL      0.089117
    159 H69         1.7320    1.4360    2.6210 hc        1 MOL      0.064624
    160 H70         2.4080    0.2860    1.4160 hc        1 MOL      0.064624
    161 H71         2.2800    1.9620   -0.3720 hc        1 MOL      0.034607
    162 H72         1.4260    3.0520    0.7350 hc        1 MOL      0.034607
    163 N14         5.0960    0.1080    2.7440 n         1 MOL      0.026292
    164 C55         6.0620   -0.5180    3.6340 c3        1 MOL     -0.304064
    165 H73         6.6080   -1.2900    3.0920 h1        1 MOL      0.100964
    166 H74         6.7620    0.2340    3.9970 h1        1 MOL      0.100964
    167 H75         5.5410   -0.9680    4.4780 h1        1 MOL      0.100964
    168 H76         5.0390   -0.2210    1.7910 hn        1 MOL      0.009700
    169 Ca1        -2.1400   -0.2600   -0.9260 Ca        1 MOL      1.715599
@<TRIPOS>BOND
     1    1    2 1   
     2    1    4 1   
     3    1    5 1   
     4    1    6 1   
     5    2    3 2   
     6    2    7 1   
     7    7    8 1   
     8    7   15 1   
     9    8    9 1   
    10    8   11 1   
    11    8   16 1   
    12    9   10 2   
    13    9   19 1   
    14   11   12 1   
    15   11   17 1   
    16   11   18 1   
    17   12   13 1   
    18   12   14 1   
    19   19   20 1   
    20   19   24 1   
    21   20   21 1   
    22   20   23 1   
    23   20   25 1   
    24   21   22 2   
    25   21   29 1   
    26   23   26 1   
    27   23   27 1   
    28   23   28 1   
    29   29   30 1   
    30   29   37 1   
    31   30   31 1   
    32   30   33 1   
    33   30   38 1   
    34   31   32 2   
    35   31   41 1   
    36   33   34 1   
    37   33   39 1   
    38   33   40 1   
    39   34   35 1   
    40   34   36 1   
    41   41   42 1   
    42   41   45 1   
    43   42   43 1   
    44   42   46 1   
    45   42   47 1   
    46   43   44 2   
    47   43   48 1   
    48   48   49 1   
    49   48   56 1   
    50   49   50 1   
    51   49   52 1   
    52   49   57 1   
    53   50   51 2   
    54   50   62 1   
    55   52   53 1   
    56   52   58 1   
    57   52   59 1   
    58   53   54 1   
    59   53   55 2   
    60   54   60 1   
    61   54   61 1   
    62   62   63 1   
    63   62   66 1   
    64   63   64 1   
    65   63   67 1   
    66   63   68 1   
    67   64   65 2   
    68   64   69 1   
    69   69   70 1   
    70   69   76 1   
    71   70   71 1   
    72   70   73 1   
    73   70   77 1   
    74   71   72 2   
    75   71   83 1   
    76   73   74 1   
    77   73   75 1   
    78   73   78 1   
    79   74   80 1   
    80   74   81 1   
    81   74   82 1   
    82   75   79 1   
    83   83   84 1   
    84   83   91 1   
    85   84   85 1   
    86   84   87 1   
    87   84   92 1   
    88   85   86 2   
    89   85  102 1   
    90   87   88 1   
    91   87   89 1   
    92   87   93 1   
    93   88   90 1   
    94   88   94 1   
    95   88   95 1   
    96   89   96 1   
    97   89   97 1   
    98   89   98 1   
    99   90   99 1   
   100   90  100 1   
   101   90  101 1   
   102  102  103 1   
   103  102  110 1   
   104  103  104 1   
   105  103  106 1   
   106  103  111 1   
   107  104  105 2   
   108  104  114 1   
   109  106  107 1   
   110  106  112 1   
   111  106  113 1   
   112  107  108 1   
   113  107  109 1   
   114  114  115 1   
   115  114  125 1   
   116  115  116 1   
   117  115  118 1   
   118  115  126 1   
   119  116  117 2   
   120  116  134 1   
   121  118  119 1   
   122  118  127 1   
   123  118  128 1   
   124  119  120 ar  
   125  119  121 ar  
   126  120  122 ar  
   127  120  129 1   
   128  121  123 ar  
   129  121  130 1   
   130  122  124 ar  
   131  122  131 1   
   132  123  124 ar  
   133  123  132 1   
   134  124  133 1   
   135  134  135 1   
   136  134  140 1   
   137  135  136 1   
   138  135  138 1   
   139  135  141 1   
   140  136  137 2   
   141  136  148 1   
   142  138  139 1   
   143  138  142 1   
   144  138  143 1   
   145  139  140 1   
   146  139  144 1   
   147  139  145 1   
   148  140  146 1   
   149  140  147 1   
   150  148  149 1   
   151  148  157 1   
   152  149  150 1   
   153  149  152 1   
   154  149  158 1   
   155  150  151 2   
   156  150  163 1   
   157  152  153 1   
   158  152  159 1   
   159  152  160 1   
   160  153  154 1   
   161  153  161 1   
   162  153  162 1   
   163  154  155 1   
   164  154  156 1   
   165  163  164 1   
   166  163  168 1   
   167  164  165 1   
   168  164  166 1   
   169  164  167 1   
@<TRIPOS>SUBSTRUCTURE
     1 MOL         1 TEMP              0 ****  ****    0 ROOT
