@<TRIPOS>MOLECULE
MOL
  179   176     1     0     0
SMALL
resp


@<TRIPOS>ATOM
      1 C1          1.4250    3.8100    6.4730 c3        1 MOL     -0.305027
      2 C2          1.3230    3.2120    5.0310 c         1 MOL      0.715750
      3 O1          2.3860    2.9410    4.3860 o         1 MOL     -0.585821
      4 H1          1.0090    3.1020    7.1900 hc        1 MOL      0.078195
      5 H2          2.4710    3.9990    6.7150 hc        1 MOL      0.078195
      6 H3          0.8660    4.7440    6.5200 hc        1 MOL      0.078195
      7 N1          0.1160    2.8790    4.5370 n         1 MOL     -0.592331
      8 C3         -0.0540    2.5520    3.0910 c3        1 MOL     -0.061701
      9 C4         -0.0220    3.7570    2.2210 c         1 MOL      0.533175
     10 O2         -0.6220    4.7980    2.6210 o         1 MOL     -0.509660
     11 C5         -1.4060    1.7980    2.9810 c3        1 MOL     -0.125755
     12 C6         -1.6230    1.1490    1.6490 c         1 MOL      0.613891
     13 O3         -0.6260    0.9540    0.8650 o         1 MOL     -0.662543
     14 O4         -2.7890    0.7420    1.4150 o         1 MOL     -0.662543
     15 H4         -0.6770    3.0670    5.1250 hn        1 MOL      0.331342
     16 H5          0.7580    1.8600    2.8960 h1        1 MOL      0.144451
     17 H6         -2.1790    2.5640    3.1150 hc        1 MOL      0.066701
     18 H7         -1.5980    1.1790    3.8530 hc        1 MOL      0.066701
     19 N2          0.5340    3.6460    1.0140 n         1 MOL     -0.255958
     20 C7          0.8150    4.8000    0.1760 c3        1 MOL     -0.057213
     21 C8         -0.3750    5.3270   -0.5130 c         1 MOL      0.375550
     22 O5         -0.6300    6.4780   -0.4170 o         1 MOL     -0.538948
     23 C9          1.9500    4.4770   -0.8200 c3        1 MOL     -0.088667
     24 C10         2.4080    5.7900   -1.4720 c3        1 MOL     -0.150381
     25 C11         3.3860    5.6570   -2.6770 c3        1 MOL     -0.082096
     26 C12         3.6390    7.0670   -3.2610 c3        1 MOL      0.140637
     27 N3          4.7640    6.9950   -4.1800 n4        1 MOL     -0.499914
     28 H8          0.9200    2.7510    0.7230 hn        1 MOL      0.147475
     29 H9          1.0830    5.6680    0.7820 h1        1 MOL      0.100164
     30 H10         1.5860    3.7500   -1.5470 hc        1 MOL      0.101425
     31 H11         2.8190    4.1610   -0.2480 hc        1 MOL      0.101425
     32 H12         2.8730    6.4060   -0.7030 hc        1 MOL      0.079869
     33 H13         1.5250    6.2760   -1.8790 hc        1 MOL      0.079869
     34 H14         3.0530    4.9220   -3.4000 hc        1 MOL      0.049825
     35 H15         4.3520    5.3520   -2.2720 hc        1 MOL      0.049825
     36 H16         3.8320    7.7000   -2.4050 hx        1 MOL      0.064325
     37 H17         2.7620    7.3940   -3.8280 hx        1 MOL      0.064325
     38 H18         5.0380    7.9380   -4.4180 hn        1 MOL      0.365681
     39 H19         5.5310    6.5260   -3.7180 hn        1 MOL      0.365681
     40 H20         4.4380    6.5180   -5.0100 hn        1 MOL      0.365681
     41 N4         -1.1370    4.4510   -1.1000 n         1 MOL     -0.089777
     42 C13        -2.4470    4.8160   -1.6790 c3        1 MOL      0.007396
     43 C14        -3.6170    4.5950   -0.7490 c         1 MOL      0.423803
     44 O6         -4.7250    4.9320   -1.1070 o         1 MOL     -0.520210
     45 C15        -2.7160    4.0120   -2.9800 c3        1 MOL     -0.075175
     46 C16        -2.7710    2.4780   -2.8970 c         1 MOL      0.697747
     47 O7         -3.2880    1.8870   -3.9050 o         1 MOL     -0.711931
     48 O8         -2.5390    1.9080   -1.8310 o         1 MOL     -0.711931
     49 H21        -0.7170    3.5310   -1.1750 hn        1 MOL      0.108722
     50 H22        -2.4050    5.8570   -2.0280 h1        1 MOL      0.089755
     51 H23        -1.8060    4.2410   -3.5450 hc        1 MOL      0.014255
     52 H24        -3.4720    4.4930   -3.6040 hc        1 MOL      0.014255
     53 N5         -3.4160    3.9840    0.4530 n         1 MOL     -0.114941
     54 C17        -4.5090    3.7320    1.3870 c3        1 MOL     -0.273517
     55 C18        -5.5900    2.6770    0.9690 c         1 MOL      0.529523
     56 O9         -6.7510    2.8080    1.3990 o         1 MOL     -0.575188
     57 H25        -2.5120    3.5570    0.6060 hn        1 MOL      0.095846
     58 H26        -5.0100    4.7070    1.3600 h1        1 MOL      0.127868
     59 H27        -4.1030    3.4880    2.3650 h1        1 MOL      0.127868
     60 N6         -5.2720    1.7400    0.0650 n         1 MOL     -0.060250
     61 C19        -6.2840    0.9700   -0.5990 c3        1 MOL     -0.157165
     62 C20        -6.7320   -0.2680    0.1950 c         1 MOL      0.383512
     63 O10        -7.5690   -1.0720   -0.2910 o         1 MOL     -0.499394
     64 C21        -5.8760    0.7370   -2.0530 c3        1 MOL     -0.293265
     65 C22        -4.8360   -0.3490   -2.2930 c         1 MOL      0.659821
     66 N7         -4.8580   -0.9540   -3.4380 n         1 MOL     -0.577023
     67 O11        -3.9250   -0.6490   -1.5200 o         1 MOL     -0.615499
     68 H28        -4.3070    1.4430    0.0130 hn        1 MOL      0.124928
     69 H29        -7.1720    1.5890   -0.7100 h1        1 MOL      0.159487
     70 H30        -5.5150    1.6930   -2.4240 hc        1 MOL      0.133675
     71 H31        -6.7600    0.4700   -2.6430 hc        1 MOL      0.133675
     72 H32        -5.5980   -0.7040   -4.0820 hn        1 MOL      0.300518
     73 H33        -4.0820   -1.5360   -3.7260 hn        1 MOL      0.300518
     74 N8         -6.1720   -0.4530    1.4010 n         1 MOL     -0.140478
     75 C23        -6.5350   -1.4010    2.4210 c3        1 MOL     -0.202414
     76 C24        -5.6120   -2.6590    2.4520 c         1 MOL      0.532164
     77 O12        -5.8960   -3.4890    3.3320 o         1 MOL     -0.555289
     78 H34        -5.4800    0.1820    1.7650 hn        1 MOL      0.208899
     79 H35        -7.5120   -1.8110    2.1540 h1        1 MOL      0.116493
     80 H36        -6.6150   -0.9210    3.3900 h1        1 MOL      0.116493
     81 N9         -4.5350   -2.7210    1.6600 n         1 MOL     -0.271525
     82 C25        -3.3770   -3.6500    1.7890 c3        1 MOL     -0.021307
     83 C26        -2.0600   -3.0160    1.3820 c         1 MOL      0.567826
     84 O13        -1.9470   -2.2180    0.4840 o         1 MOL     -0.586110
     85 C27        -3.6480   -5.0090    1.1880 c3        1 MOL     -0.065148
     86 C28        -3.8770   -5.0890   -0.3300 ca        1 MOL      0.071430
     87 C29        -2.8670   -5.3650   -1.3010 ca        1 MOL     -0.232299
     88 C30        -5.1970   -4.9870   -0.8350 ca        1 MOL     -0.232299
     89 C31        -3.1900   -5.5310   -2.6520 ca        1 MOL     -0.153075
     90 C32        -5.5420   -5.0250   -2.2180 ca        1 MOL     -0.153075
     91 C33        -4.4580   -5.2320   -3.1070 ca        1 MOL      0.203158
     92 O14        -4.6990   -5.1600   -4.4610 oh        1 MOL     -0.439490
     93 H37        -4.3730   -1.9780    0.9970 hn        1 MOL      0.219862
     94 H38        -3.2430   -3.8830    2.8460 h1        1 MOL      0.054282
     95 H39        -4.5190   -5.4170    1.7110 hc        1 MOL      0.060066
     96 H40        -2.8340   -5.6620    1.5030 hc        1 MOL      0.060066
     97 H41        -1.8850   -5.5870   -0.9030 ha        1 MOL      0.158887
     98 H42        -6.0260   -4.8140   -0.1630 ha        1 MOL      0.158887
     99 H43        -2.4230   -5.8080   -3.3600 ha        1 MOL      0.131937
    100 H44        -6.5430   -4.8260   -2.5650 ha        1 MOL      0.131937
    101 H45        -3.9550   -5.5170   -4.9500 ho        1 MOL      0.321761
    102 N10        -1.0120   -3.2880    2.1900 n         1 MOL     -0.478214
    103 C34         0.3620   -2.7190    2.0120 c3        1 MOL      0.054271
    104 C35         1.1570   -3.7100    1.2130 c         1 MOL      0.416741
    105 O15         1.2960   -4.8200    1.6560 o         1 MOL     -0.524542
    106 C36         0.9310   -2.5310    3.3470 c3        1 MOL      0.145445
    107 C37         0.1910   -1.5240    4.1920 c3        1 MOL      0.115696
    108 C38         2.4080   -2.0900    3.2100 c3        1 MOL     -0.296184
    109 C39         0.7150   -1.6370    5.6750 c3        1 MOL     -0.162552
    110 H46        -1.2420   -3.8840    2.9650 hn        1 MOL      0.300900
    111 H47         0.2230   -1.7410    1.5470 h1        1 MOL      0.032243
    112 H48         0.9320   -3.4790    3.8830 hc        1 MOL     -0.000628
    113 H49        -0.8650   -1.7610    4.2950 hc        1 MOL     -0.020858
    114 H50         0.2770   -0.4990    3.8280 hc        1 MOL     -0.020858
    115 H51         2.4530   -1.1900    2.5950 hc        1 MOL      0.072297
    116 H52         2.8980   -1.8430    4.1550 hc        1 MOL      0.072297
    117 H53         2.9860   -2.9240    2.8100 hc        1 MOL      0.072297
    118 H54         0.3880   -2.5380    6.1870 hc        1 MOL      0.035564
    119 H55         1.7900   -1.5340    5.8240 hc        1 MOL      0.035564
    120 H56         0.3760   -0.7190    6.1630 hc        1 MOL      0.035564
    121 N11         1.8300   -3.2640    0.1060 n         1 MOL      0.006941
    122 C40         2.8830   -3.9630   -0.6210 c3        1 MOL     -0.223401
    123 C41         4.3960   -3.5520   -0.1810 c         1 MOL      0.527204
    124 O16         4.6040   -2.6770    0.6610 o         1 MOL     -0.391154
    125 C42         2.6720   -3.7380   -2.1210 c3        1 MOL      0.221870
    126 O17         2.8380   -2.3950   -2.3730 oh        1 MOL     -0.583815
    127 H57         1.6880   -2.3130   -0.2110 hn        1 MOL      0.046221
    128 H58         2.7710   -5.0280   -0.4320 h1        1 MOL      0.073145
    129 H59         1.6060   -3.9150   -2.2830 h1        1 MOL     -0.011184
    130 H60         3.3520   -4.3350   -2.7380 h1        1 MOL     -0.011184
    131 H61         2.2330   -1.9190   -1.8010 ho        1 MOL      0.395021
    132 N12         5.4220   -4.2940   -0.6410 n         1 MOL     -0.468042
    133 C43         6.7960   -4.1760   -0.1970 c3        1 MOL      0.201143
    134 C44         7.5090   -2.8690   -0.4910 c         1 MOL      0.405227
    135 O18         8.0380   -2.2320    0.4510 o         1 MOL     -0.496232
    136 C45         7.5110   -5.4420   -0.7680 c3        1 MOL     -0.350080
    137 H62         5.1750   -5.0110   -1.2980 hn        1 MOL      0.291017
    138 H63         6.8100   -4.1860    0.8910 h1        1 MOL      0.065193
    139 H64         8.5820   -5.3690   -0.6230 hc        1 MOL      0.103192
    140 H65         7.1160   -6.3070   -0.2390 hc        1 MOL      0.103192
    141 H66         7.2980   -5.5340   -1.8380 hc        1 MOL      0.103192
    142 N13         7.2850   -2.3760   -1.7220 n         1 MOL     -0.339482
    143 C46         7.7090   -1.0380   -2.1860 c3        1 MOL      0.077092
    144 C47         7.1290    0.0740   -1.2740 c         1 MOL      0.351470
    145 O19         7.8690    1.0420   -1.0070 o         1 MOL     -0.505307
    146 C48         7.2900   -0.8810   -3.6910 c3        1 MOL     -0.355944
    147 H67         6.8980   -3.0280   -2.3890 hn        1 MOL      0.253302
    148 H68         8.8010   -1.0310   -2.1550 h1        1 MOL      0.097519
    149 H69         7.9620   -1.4480   -4.3390 hc        1 MOL      0.105717
    150 H70         6.3040   -1.2630   -3.9520 hc        1 MOL      0.105717
    151 H71         7.2190    0.1710   -3.9690 hc        1 MOL      0.105717
    152 N14         5.9140   -0.1510   -0.7670 n         1 MOL      0.043926
    153 C49         5.1510    0.7850    0.0530 c3        1 MOL     -0.203954
    154 C50         5.5900    0.8630    1.4780 c         1 MOL      0.477729
    155 O20         5.7490    1.9670    1.9980 o         1 MOL     -0.541578
    156 C51         3.6440    0.5180    0.0450 c3        1 MOL     -0.008769
    157 C52         2.9750    0.7620   -1.3120 c3        1 MOL     -0.013214
    158 C53         1.5290    0.3970   -1.3920 c         1 MOL      0.547865
    159 O21         1.2170   -0.8340   -1.1920 o         1 MOL     -0.609811
    160 O22         0.6770    1.1890   -1.7820 o         1 MOL     -0.609811
    161 H72         5.4720   -1.0410   -0.9930 hn        1 MOL      0.047303
    162 H73         5.3720    1.7470   -0.4330 h1        1 MOL      0.073389
    163 H74         3.1240    1.0080    0.8650 hc        1 MOL      0.051010
    164 H75         3.6250   -0.5510    0.2320 hc        1 MOL      0.051010
    165 H76         3.5520    0.2720   -2.0870 hc        1 MOL     -0.012638
    166 H77         2.9760    1.8170   -1.5840 hc        1 MOL     -0.012638
    167 N15         5.9320   -0.2530    2.0680 n         1 MOL     -0.036434
    168 C54         6.6810   -0.3690    3.3020 c3        1 MOL     -0.331221
    169 H78         6.4080   -1.2960    3.8070 h1        1 MOL      0.123920
    170 H79         7.7470   -0.3770    3.0810 h1        1 MOL      0.123920
    171 H80         6.4490    0.4780    3.9490 h1        1 MOL      0.123920
    172 H81         5.5860   -1.0880    1.6110 hn        1 MOL      0.105762
    173 Ca1        -1.4420   -0.3010   -1.2120 Ca        1 MOL      1.722786
    174 O23        -0.8730   -2.6000   -2.3970 oh        1 MOL     -0.858323
    175 H82        -1.6440   -2.6670   -2.9660 ho        1 MOL      0.404131
    176 H83        -0.2510   -3.2320   -2.7510 ho        1 MOL      0.404131
    177 O24        -1.5140   -0.2760   -3.9470 oh        1 MOL     -0.858323
    178 H84        -0.8570   -0.6430   -4.5560 ho        1 MOL      0.404131
    179 H85        -2.0910    0.2360   -4.5060 ho        1 MOL      0.404131
@<TRIPOS>BOND
     1    1    2 1   
     2    1    4 1   
     3    1    5 1   
     4    1    6 1   
     5    2    3 2   
     6    2    7 1   
     7    7    8 1   
     8    7   15 1   
     9    8    9 1   
    10    8   11 1   
    11    8   16 1   
    12    9   10 2   
    13    9   19 1   
    14   11   12 1   
    15   11   17 1   
    16   11   18 1   
    17   12   13 1   
    18   12   14 1   
    19   19   20 1   
    20   19   28 1   
    21   20   21 1   
    22   20   23 1   
    23   20   29 1   
    24   21   22 2   
    25   21   41 1   
    26   23   24 1   
    27   23   30 1   
    28   23   31 1   
    29   24   25 1   
    30   24   32 1   
    31   24   33 1   
    32   25   26 1   
    33   25   34 1   
    34   25   35 1   
    35   26   27 1   
    36   26   36 1   
    37   26   37 1   
    38   27   38 1   
    39   27   39 1   
    40   27   40 1   
    41   41   42 1   
    42   41   49 1   
    43   42   43 1   
    44   42   45 1   
    45   42   50 1   
    46   43   44 2   
    47   43   53 1   
    48   45   46 1   
    49   45   51 1   
    50   45   52 1   
    51   46   47 1   
    52   46   48 1   
    53   53   54 1   
    54   53   57 1   
    55   54   55 1   
    56   54   58 1   
    57   54   59 1   
    58   55   56 2   
    59   55   60 1   
    60   60   61 1   
    61   60   68 1   
    62   61   62 1   
    63   61   64 1   
    64   61   69 1   
    65   62   63 2   
    66   62   74 1   
    67   64   65 1   
    68   64   70 1   
    69   64   71 1   
    70   65   66 1   
    71   65   67 2   
    72   66   72 1   
    73   66   73 1   
    74   74   75 1   
    75   74   78 1   
    76   75   76 1   
    77   75   79 1   
    78   75   80 1   
    79   76   77 2   
    80   76   81 1   
    81   81   82 1   
    82   81   93 1   
    83   82   83 1   
    84   82   85 1   
    85   82   94 1   
    86   83   84 2   
    87   83  102 1   
    88   85   86 1   
    89   85   95 1   
    90   85   96 1   
    91   86   87 ar  
    92   86   88 ar  
    93   87   89 ar  
    94   87   97 1   
    95   88   90 ar  
    96   88   98 1   
    97   89   91 ar  
    98   89   99 1   
    99   90   91 ar  
   100   90  100 1   
   101   91   92 1   
   102   92  101 1   
   103  102  103 1   
   104  102  110 1   
   105  103  104 1   
   106  103  106 1   
   107  103  111 1   
   108  104  105 2   
   109  104  121 1   
   110  106  107 1   
   111  106  108 1   
   112  106  112 1   
   113  107  109 1   
   114  107  113 1   
   115  107  114 1   
   116  108  115 1   
   117  108  116 1   
   118  108  117 1   
   119  109  118 1   
   120  109  119 1   
   121  109  120 1   
   122  121  122 1   
   123  121  127 1   
   124  122  123 1   
   125  122  125 1   
   126  122  128 1   
   127  123  124 2   
   128  123  132 1   
   129  125  126 1   
   130  125  129 1   
   131  125  130 1   
   132  126  131 1   
   133  132  133 1   
   134  132  137 1   
   135  133  134 1   
   136  133  136 1   
   137  133  138 1   
   138  134  135 2   
   139  134  142 1   
   140  136  139 1   
   141  136  140 1   
   142  136  141 1   
   143  142  143 1   
   144  142  147 1   
   145  143  144 1   
   146  143  146 1   
   147  143  148 1   
   148  144  145 2   
   149  144  152 1   
   150  146  149 1   
   151  146  150 1   
   152  146  151 1   
   153  152  153 1   
   154  152  161 1   
   155  153  154 1   
   156  153  156 1   
   157  153  162 1   
   158  154  155 2   
   159  154  167 1   
   160  156  157 1   
   161  156  163 1   
   162  156  164 1   
   163  157  158 1   
   164  157  165 1   
   165  157  166 1   
   166  158  159 1   
   167  158  160 1   
   168  167  168 1   
   169  167  172 1   
   170  168  169 1   
   171  168  170 1   
   172  168  171 1   
   173  174  175 1   
   174  174  176 1   
   175  177  178 1   
   176  177  179 1   
@<TRIPOS>SUBSTRUCTURE
     1 MOL         1 TEMP              0 ****  ****    0 ROOT
