@<TRIPOS>MOLECULE
MOL
  186   183     1     0     0
SMALL
resp


@<TRIPOS>ATOM
      1 C1          1.0520   -2.6270    6.2390 c3        1 MOL     -0.350610
      2 C2          0.9950   -2.4920    4.7390 c         1 MOL      0.826501
      3 O1          0.0470   -2.8050    4.0310 o         1 MOL     -0.631608
      4 H1          1.9870   -2.2060    6.6060 hc        1 MOL      0.071911
      5 H2          0.2140   -2.0920    6.6850 hc        1 MOL      0.071911
      6 H3          0.9960   -3.6810    6.5120 hc        1 MOL      0.071911
      7 N1          2.0900   -1.8710    4.3100 n         1 MOL     -0.703995
      8 C3          2.5220   -1.8090    2.9170 c3        1 MOL      0.467534
      9 C4          2.8530   -3.2060    2.3340 c         1 MOL      0.321869
     10 O2          3.6940   -3.8920    2.8620 o         1 MOL     -0.532939
     11 C5          3.7680   -0.8790    2.9020 c3        1 MOL     -0.558948
     12 C6          4.3590   -0.7540    1.5040 c         1 MOL      0.945335
     13 O3          5.4330   -0.1450    1.4570 o         1 MOL     -0.727763
     14 O4          3.6910   -1.1500    0.5150 o         1 MOL     -0.727763
     15 H4          2.7110   -1.4880    5.0110 hn        1 MOL      0.330367
     16 H5          1.6960   -1.3660    2.3690 h1        1 MOL     -0.069887
     17 H6          4.5790   -1.2910    3.5060 hc        1 MOL      0.121415
     18 H7          3.4480    0.1150    3.2120 hc        1 MOL      0.121415
     19 N2          2.2900   -3.6190    1.1910 n         1 MOL     -0.096983
     20 C7          2.3830   -4.9400    0.6440 c3        1 MOL     -0.179705
     21 C8          3.5480   -5.0280   -0.4220 c         1 MOL      0.529141
     22 O5          4.4060   -5.8930   -0.2450 o         1 MOL     -0.585233
     23 C9          1.0090   -5.4980    0.0470 c3        1 MOL      0.112741
     24 C10        -0.0740   -5.3800    1.1290 c3        1 MOL      0.426110
     25 C11         1.1380   -6.9020   -0.5270 c3        1 MOL     -0.230214
     26 C12        -1.3930   -6.0970    0.8160 c3        1 MOL     -0.380548
     27 H8          1.6730   -2.9830    0.7170 hn        1 MOL      0.047526
     28 H9          2.7700   -5.5810    1.4370 h1        1 MOL      0.101059
     29 H10         0.6000   -4.8640   -0.7410 hc        1 MOL      0.006561
     30 H11        -0.2770   -4.3380    1.3870 hc        1 MOL     -0.098276
     31 H12         0.2870   -5.9310    2.0070 hc        1 MOL     -0.098276
     32 H13         1.5530   -7.5950    0.1960 hc        1 MOL      0.039346
     33 H14         0.2400   -7.3530   -0.9420 hc        1 MOL      0.039346
     34 H15         1.8400   -6.7330   -1.3450 hc        1 MOL      0.039346
     35 H16        -2.0410   -6.0130    1.6890 hc        1 MOL      0.075782
     36 H17        -1.8160   -5.5600   -0.0390 hc        1 MOL      0.075782
     37 H18        -1.1590   -7.1570    0.6600 hc        1 MOL      0.075782
     38 N3          3.7100   -4.0240   -1.3310 n         1 MOL     -0.313597
     39 C13         4.8540   -3.9730   -2.2960 c3        1 MOL      0.053166
     40 C14         6.1350   -3.3400   -1.7550 c         1 MOL      0.396838
     41 O6          7.1480   -3.2710   -2.5050 o         1 MOL     -0.541122
     42 C15         4.5010   -3.4430   -3.6930 c3        1 MOL     -0.195310
     43 C16         4.0410   -1.9570   -3.7090 c         1 MOL      0.735585
     44 O7          3.6850   -1.4010   -2.6470 o         1 MOL     -0.715027
     45 O8          4.0910   -1.2960   -4.7950 o         1 MOL     -0.715027
     46 H19         2.9330   -3.3930   -1.4500 hn        1 MOL      0.249968
     47 H20         5.1310   -5.0060   -2.4980 h1        1 MOL      0.062923
     48 H21         3.6320   -3.9800   -4.0800 hc        1 MOL      0.035286
     49 H22         5.4270   -3.5320   -4.2630 hc        1 MOL      0.035286
     50 N4          6.1740   -2.9490   -0.5330 n         1 MOL     -0.221149
     51 C17         7.4060   -2.5170    0.1260 c3        1 MOL     -0.158498
     52 C18         7.8250   -1.1250   -0.4080 c         1 MOL      0.450992
     53 O9          9.0490   -0.8150   -0.4780 o         1 MOL     -0.609093
     54 H23         5.2390   -2.9330   -0.1360 hn        1 MOL      0.273800
     55 H24         8.1420   -3.2810   -0.1180 h1        1 MOL      0.100603
     56 H25         7.2680   -2.5020    1.2070 h1        1 MOL      0.100603
     57 N5          6.9820   -0.2660   -1.0030 n         1 MOL     -0.025049
     58 C19         7.4570    1.0200   -1.5840 c3        1 MOL     -0.117793
     59 C20         7.5480    2.1710   -0.6130 c         1 MOL      0.500259
     60 O10         7.9980    3.2690   -0.9390 o         1 MOL     -0.565323
     61 C21         6.6980    1.4730   -2.8640 c3        1 MOL     -0.229012
     62 C22         5.3000    1.9800   -2.5390 c         1 MOL      0.752437
     63 O11         4.7810    2.8470   -3.2960 o         1 MOL     -0.718522
     64 O12         4.5630    1.4500   -1.6630 o         1 MOL     -0.718522
     65 H26         6.0010   -0.5020   -0.9940 hn        1 MOL      0.098222
     66 H27         8.4950    0.9590   -1.9160 h1        1 MOL      0.111643
     67 H28         6.7560    0.6040   -3.5150 hc        1 MOL      0.087398
     68 H29         7.2400    2.3210   -3.2880 hc        1 MOL      0.087398
     69 N6          7.0520    1.9220    0.5840 n         1 MOL     -0.301668
     70 C23         7.1300    2.9110    1.6340 c3        1 MOL     -0.058877
     71 C24         5.8850    3.7190    1.7970 c         1 MOL      0.549360
     72 O13         5.8020    4.6440    2.6310 o         1 MOL     -0.632412
     73 H30         6.5180    1.0820    0.7670 hn        1 MOL      0.246243
     74 H31         7.9440    3.6340    1.5310 h1        1 MOL      0.065614
     75 H32         7.2320    2.4870    2.6270 h1        1 MOL      0.065614
     76 N7          4.7690    3.2490    1.2330 n         1 MOL     -0.192515
     77 C25         3.4570    3.9490    1.2650 c3        1 MOL     -0.161287
     78 C26         2.3050    2.9640    1.3510 c         1 MOL      0.587208
     79 O14         2.3900    1.8790    0.7540 o         1 MOL     -0.728016
     80 C27         3.2920    4.9920    0.0710 c3        1 MOL      0.173817
     81 C28         4.0090    6.3230    0.4440 c3        1 MOL     -0.121677
     82 C29         3.7970    7.4280   -0.6260 c         1 MOL      0.524054
     83 N8          4.6750    7.4900   -1.5650 n         1 MOL     -0.694714
     84 O15         2.8070    8.2120   -0.6390 o         1 MOL     -0.573490
     85 H33         4.8880    2.4190    0.6810 hn        1 MOL      0.156141
     86 H34         3.3770    4.3730    2.2640 h1        1 MOL      0.092540
     87 H35         2.2370    5.1660   -0.1290 hc        1 MOL     -0.001879
     88 H36         3.7650    4.6280   -0.8400 hc        1 MOL     -0.001879
     89 H37         5.0480    6.1380    0.7200 hc        1 MOL      0.035683
     90 H38         3.4050    6.5830    1.3180 hc        1 MOL      0.035683
     91 H39         5.5560    7.0000   -1.5260 hn        1 MOL      0.347925
     92 H40         4.4920    8.0970   -2.3610 hn        1 MOL      0.347925
     93 N9          1.1470    3.3200    1.9920 n         1 MOL     -0.323143
     94 C30        -0.0940    2.5470    2.0900 c3        1 MOL     -0.006118
     95 C31        -1.1460    3.1450    1.0860 c         1 MOL      0.371873
     96 O16        -1.4010    4.3470    1.0310 o         1 MOL     -0.541135
     97 C32        -0.7340    2.4700    3.4710 c3        1 MOL      0.243943
     98 C33        -2.1730    1.8760    3.4700 c3        1 MOL     -0.354530
     99 C34         0.1360    1.5350    4.3710 c3        1 MOL     -0.354530
    100 H41         1.1780    4.1830    2.5160 hn        1 MOL      0.229015
    101 H42         0.1060    1.5170    1.7960 h1        1 MOL      0.195027
    102 H43        -0.7490    3.4290    3.9930 hc        1 MOL     -0.016253
    103 H44        -2.0640    0.9580    2.9010 hc        1 MOL      0.082752
    104 H45        -2.5010    1.5550    4.4540 hc        1 MOL      0.082752
    105 H46        -2.9450    2.5560    3.1190 hc        1 MOL      0.082752
    106 H47         1.1720    1.8840    4.3850 hc        1 MOL      0.082752
    107 H48        -0.2850    1.6370    5.3720 hc        1 MOL      0.082752
    108 H49         0.0680    0.5080    4.0390 hc        1 MOL      0.082752
    109 N10        -1.7370    2.2070    0.3230 n         1 MOL     -0.157262
    110 C35        -2.8870    2.4270   -0.5100 c3        1 MOL      0.184000
    111 C36        -4.1900    2.0010    0.1960 c         1 MOL      0.437762
    112 O17        -4.1750    1.0120    0.9870 o         1 MOL     -0.411679
    113 C37        -2.6500    1.7450   -1.8560 c3        1 MOL     -0.367834
    114 C38        -3.7950    1.9000   -2.8320 c         1 MOL      0.607795
    115 N11        -4.3600    3.0940   -3.0360 n         1 MOL     -0.736402
    116 O18        -4.3400    0.9360   -3.3490 o         1 MOL     -0.462594
    117 H50        -1.3710    1.2680    0.2960 hn        1 MOL      0.082980
    118 H51        -2.9880    3.4860   -0.7240 h1        1 MOL      0.005014
    119 H52        -2.4440    0.6870   -1.7020 hc        1 MOL      0.149324
    120 H53        -1.7450    2.1480   -2.3010 hc        1 MOL      0.149324
    121 H54        -3.9560    3.9710   -2.7400 hn        1 MOL      0.339462
    122 H55        -5.1550    3.1520   -3.6630 hn        1 MOL      0.339462
    123 N12        -5.3820    2.5420   -0.2050 n         1 MOL     -0.493034
    124 C39        -6.6930    2.1040    0.3360 c3        1 MOL     -0.011688
    125 C40        -6.9410    0.5700    0.1220 c         1 MOL      0.848651
    126 O19        -7.3310   -0.1060    1.0690 o         1 MOL     -0.548034
    127 C41        -7.7360    2.9890   -0.2980 c3        1 MOL     -0.035687
    128 C42        -9.1440    2.4250   -0.1240 ca        1 MOL      0.014054
    129 C43        -9.5660    2.2830    1.1970 ca        1 MOL     -0.246096
    130 C44        -9.9190    1.9840   -1.1890 ca        1 MOL     -0.246096
    131 C45       -10.8090    1.7680    1.4360 ca        1 MOL     -0.143220
    132 C46       -11.1130    1.3420   -0.9550 ca        1 MOL     -0.143220
    133 C47       -11.5990    1.3380    0.3990 ca        1 MOL      0.270096
    134 O20       -12.8370    0.9130    0.6210 oh        1 MOL     -0.517289
    135 H56        -5.3880    3.2460   -0.9250 hn        1 MOL      0.246484
    136 H57        -6.7620    2.3130    1.4010 h1        1 MOL      0.093134
    137 H58        -7.5900    3.1730   -1.3590 hc        1 MOL      0.044896
    138 H59        -7.7630    4.0510   -0.0510 hc        1 MOL      0.044896
    139 H60        -8.8850    2.6160    1.9580 ha        1 MOL      0.142885
    140 H61        -9.4350    2.0740   -2.1500 ha        1 MOL      0.142885
    141 H62       -11.2110    1.7370    2.4430 ha        1 MOL      0.125233
    142 H63       -11.6800    0.9570   -1.7780 ha        1 MOL      0.125233
    143 H64       -13.3410    0.7720   -0.1830 ho        1 MOL      0.382390
    144 N13        -6.5860   -0.0530   -1.0280 n         1 MOL     -0.573176
    145 C48        -6.7210   -1.5470   -1.0950 c3        1 MOL     -0.021872
    146 C49        -5.6480   -2.2720   -0.2550 c         1 MOL      0.394848
    147 O21        -5.9060   -3.4590   -0.0350 o         1 MOL     -0.532127
    148 C50        -6.4230   -2.0210   -2.5160 c3        1 MOL      0.167338
    149 C51        -7.5450   -1.5220   -3.3590 c3        1 MOL     -0.275853
    150 C52        -7.3790   -2.0310   -4.7930 c         1 MOL      0.736245
    151 O22        -8.0740   -3.0140   -5.0970 o         1 MOL     -0.749354
    152 O23        -6.6140   -1.5070   -5.5880 o         1 MOL     -0.749354
    153 H65        -6.3050    0.4780   -1.8390 hn        1 MOL      0.269213
    154 H66        -7.7010   -1.7580   -0.6660 h1        1 MOL      0.115555
    155 H67        -6.3520   -3.1030   -2.3970 hc        1 MOL      0.016601
    156 H68        -5.4830   -1.6450   -2.9150 hc        1 MOL      0.016601
    157 H69        -7.4550   -0.4410   -3.4420 hc        1 MOL      0.019641
    158 H70        -8.5190   -1.8150   -2.9460 hc        1 MOL      0.019641
    159 N14        -4.5390   -1.7190    0.2610 n         1 MOL     -0.384646
    160 C53        -3.7420   -2.2710    1.3920 c3        1 MOL      0.155355
    161 C54        -4.2440   -1.8630    2.8420 c         1 MOL      0.371107
    162 O24        -3.8640   -2.4810    3.8260 o         1 MOL     -0.550900
    163 C55        -2.2170   -1.8930    1.2530 c3        1 MOL      0.105834
    164 C56        -1.6270   -2.0710   -0.1470 c3        1 MOL     -0.069998
    165 C57        -0.1660   -1.5370   -0.2380 c         1 MOL      0.889601
    166 O25         0.7610   -2.2010   -0.7950 o         1 MOL     -0.768725
    167 O26         0.0560   -0.3450    0.0430 o         1 MOL     -0.768725
    168 H71        -4.4810   -0.7120    0.1160 hn        1 MOL      0.249455
    169 H72        -3.7300   -3.3460    1.5340 h1        1 MOL      0.048814
    170 H73        -1.7040   -2.5850    1.9210 hc        1 MOL      0.010603
    171 H74        -2.0830   -0.8630    1.5710 hc        1 MOL      0.010603
    172 H75        -2.1740   -1.4540   -0.8620 hc        1 MOL     -0.025483
    173 H76        -1.6300   -3.1280   -0.4460 hc        1 MOL     -0.025483
    174 N15        -5.1480   -0.8950    3.0040 n         1 MOL      0.028654
    175 C58        -5.8020   -0.4600    4.2060 c3        1 MOL     -0.197941
    176 H77        -5.0680   -0.0200    4.8800 h1        1 MOL      0.069515
    177 H78        -6.5580    0.2850    3.9590 h1        1 MOL      0.069515
    178 H79        -6.2770   -1.3130    4.6910 h1        1 MOL      0.069515
    179 H80        -5.4590   -0.4420    2.1500 hn        1 MOL     -0.021821
    180 Ca1         2.4630    0.1280   -1.1130 Ca        1 MOL      1.772029
    181 O27         0.5710   -0.2770   -3.0620 oh        1 MOL     -0.877161
    182 H81        -0.1310   -0.9130   -3.2080 ho        1 MOL      0.418078
    183 H82         0.6710    0.1570   -3.9070 ho        1 MOL      0.418078
    184 O28         1.9450    2.4860   -2.6310 oh        1 MOL     -0.877161
    185 H83         2.8990    2.5540   -2.6540 ho        1 MOL      0.418078
    186 H84         1.6310    3.3490   -2.8920 ho        1 MOL      0.418078
@<TRIPOS>BOND
     1    1    2 1   
     2    1    4 1   
     3    1    5 1   
     4    1    6 1   
     5    2    3 2   
     6    2    7 1   
     7    7    8 1   
     8    7   15 1   
     9    8    9 1   
    10    8   11 1   
    11    8   16 1   
    12    9   10 2   
    13    9   19 1   
    14   11   12 1   
    15   11   17 1   
    16   11   18 1   
    17   12   13 1   
    18   12   14 1   
    19   19   20 1   
    20   19   27 1   
    21   20   21 1   
    22   20   23 1   
    23   20   28 1   
    24   21   22 2   
    25   21   38 1   
    26   23   24 1   
    27   23   25 1   
    28   23   29 1   
    29   24   26 1   
    30   24   30 1   
    31   24   31 1   
    32   25   32 1   
    33   25   33 1   
    34   25   34 1   
    35   26   35 1   
    36   26   36 1   
    37   26   37 1   
    38   38   39 1   
    39   38   46 1   
    40   39   40 1   
    41   39   42 1   
    42   39   47 1   
    43   40   41 2   
    44   40   50 1   
    45   42   43 1   
    46   42   48 1   
    47   42   49 1   
    48   43   44 1   
    49   43   45 1   
    50   50   51 1   
    51   50   54 1   
    52   51   52 1   
    53   51   55 1   
    54   51   56 1   
    55   52   53 2   
    56   52   57 1   
    57   57   58 1   
    58   57   65 1   
    59   58   59 1   
    60   58   61 1   
    61   58   66 1   
    62   59   60 2   
    63   59   69 1   
    64   61   62 1   
    65   61   67 1   
    66   61   68 1   
    67   62   63 1   
    68   62   64 1   
    69   69   70 1   
    70   69   73 1   
    71   70   71 1   
    72   70   74 1   
    73   70   75 1   
    74   71   72 2   
    75   71   76 1   
    76   76   77 1   
    77   76   85 1   
    78   77   78 1   
    79   77   80 1   
    80   77   86 1   
    81   78   79 2   
    82   78   93 1   
    83   80   81 1   
    84   80   87 1   
    85   80   88 1   
    86   81   82 1   
    87   81   89 1   
    88   81   90 1   
    89   82   83 1   
    90   82   84 2   
    91   83   91 1   
    92   83   92 1   
    93   93   94 1   
    94   93  100 1   
    95   94   95 1   
    96   94   97 1   
    97   94  101 1   
    98   95   96 2   
    99   95  109 1   
   100   97   98 1   
   101   97   99 1   
   102   97  102 1   
   103   98  103 1   
   104   98  104 1   
   105   98  105 1   
   106   99  106 1   
   107   99  107 1   
   108   99  108 1   
   109  109  110 1   
   110  109  117 1   
   111  110  111 1   
   112  110  113 1   
   113  110  118 1   
   114  111  112 2   
   115  111  123 1   
   116  113  114 1   
   117  113  119 1   
   118  113  120 1   
   119  114  115 1   
   120  114  116 2   
   121  115  121 1   
   122  115  122 1   
   123  123  124 1   
   124  123  135 1   
   125  124  125 1   
   126  124  127 1   
   127  124  136 1   
   128  125  126 2   
   129  125  144 1   
   130  127  128 1   
   131  127  137 1   
   132  127  138 1   
   133  128  129 ar  
   134  128  130 ar  
   135  129  131 ar  
   136  129  139 1   
   137  130  132 ar  
   138  130  140 1   
   139  131  133 ar  
   140  131  141 1   
   141  132  133 ar  
   142  132  142 1   
   143  133  134 1   
   144  134  143 1   
   145  144  145 1   
   146  144  153 1   
   147  145  146 1   
   148  145  148 1   
   149  145  154 1   
   150  146  147 2   
   151  146  159 1   
   152  148  149 1   
   153  148  155 1   
   154  148  156 1   
   155  149  150 1   
   156  149  157 1   
   157  149  158 1   
   158  150  151 1   
   159  150  152 1   
   160  159  160 1   
   161  159  168 1   
   162  160  161 1   
   163  160  163 1   
   164  160  169 1   
   165  161  162 2   
   166  161  174 1   
   167  163  164 1   
   168  163  170 1   
   169  163  171 1   
   170  164  165 1   
   171  164  172 1   
   172  164  173 1   
   173  165  166 1   
   174  165  167 1   
   175  174  175 1   
   176  174  179 1   
   177  175  176 1   
   178  175  177 1   
   179  175  178 1   
   180  181  182 1   
   181  181  183 1   
   182  184  185 1   
   183  184  186 1   
@<TRIPOS>SUBSTRUCTURE
     1 MOL         1 TEMP              0 ****  ****    0 ROOT
