@<TRIPOS>MOLECULE
MOL
  189   185     1     0     0
SMALL
resp


@<TRIPOS>ATOM
      1 C1         -1.0280    1.4530    6.6110 c3        1 MOL     -0.380496
      2 C2         -1.3000    1.4660    5.1090 c         1 MOL      0.708108
      3 O1         -0.4130    1.9510    4.4600 o         1 MOL     -0.604731
      4 H1         -0.9370    2.4780    6.9720 hc        1 MOL      0.090059
      5 H2         -1.8510    0.9580    7.1260 hc        1 MOL      0.090059
      6 H3         -0.1000    0.9160    6.8080 hc        1 MOL      0.090059
      7 N1         -2.3570    0.9120    4.6130 n         1 MOL     -0.487115
      8 C3         -2.6190    0.9560    3.1890 c3        1 MOL      0.009936
      9 C4         -2.8940    2.4040    2.6520 c         1 MOL      0.519553
     10 O2         -3.9530    3.0130    2.8630 o         1 MOL     -0.523252
     11 C5         -3.7580   -0.0300    2.9390 c3        1 MOL     -0.101746
     12 C6         -4.3530   -0.2310    1.5800 c         1 MOL      0.717803
     13 O3         -3.8000    0.3300    0.5990 o         1 MOL     -0.666896
     14 O4         -5.2730   -1.0250    1.4540 o         1 MOL     -0.666896
     15 H4         -2.9630    0.4020    5.2540 hn        1 MOL      0.317029
     16 H5         -1.7650    0.5590    2.6350 h1        1 MOL      0.013820
     17 H6         -4.5830    0.0710    3.6400 hc        1 MOL      0.023433
     18 H7         -3.4180   -1.0080    3.2610 hc        1 MOL      0.023433
     19 N2         -1.8190    3.0360    2.0830 n         1 MOL     -0.246823
     20 C7         -1.6720    4.4930    1.7900 c3        1 MOL     -0.088168
     21 C8         -2.6800    5.0490    0.7070 c         1 MOL      0.396415
     22 O5         -2.9350    6.2300    0.3830 o         1 MOL     -0.557565
     23 C9         -0.2510    4.7360    1.2770 c3        1 MOL      0.029896
     24 C10         0.1420    6.2420    1.1980 c3        1 MOL     -0.211841
     25 C11         0.1300    6.8300   -0.2430 c3        1 MOL      0.090875
     26 C12         0.0370    8.3150   -0.2010 c3        1 MOL      0.043528
     27 N3         -0.1120    8.8850   -1.5750 n4        1 MOL     -0.287540
     28 H8         -1.0430    2.4340    1.8460 hn        1 MOL      0.236443
     29 H9         -1.7250    5.1700    2.6450 h1        1 MOL      0.114132
     30 H10        -0.0070    4.2590    0.3340 hc        1 MOL      0.070171
     31 H11         0.4760    4.2610    1.9310 hc        1 MOL      0.070171
     32 H12         1.1740    6.3960    1.5100 hc        1 MOL      0.070539
     33 H13        -0.5870    6.8650    1.7220 hc        1 MOL      0.070539
     34 H14        -0.7150    6.3300   -0.7060 hc        1 MOL     -0.028992
     35 H15         1.0890    6.6350   -0.7280 hc        1 MOL     -0.028992
     36 H16         1.0030    8.6100    0.2200 hx        1 MOL      0.068275
     37 H17        -0.7730    8.5520    0.4810 hx        1 MOL      0.068275
     38 H18        -0.8420    8.4330   -2.0990 hn        1 MOL      0.306333
     39 H19        -0.2140    9.8960   -1.5460 hn        1 MOL      0.306333
     40 H20         0.7100    8.7000   -2.1290 hn        1 MOL      0.306333
     41 N4         -3.3170    4.1620   -0.0470 n         1 MOL     -0.046125
     42 C13        -4.3530    4.3320   -1.0250 c3        1 MOL      0.047539
     43 C14        -5.6150    3.4970   -0.7810 c         1 MOL      0.279139
     44 O6         -6.6270    3.6450   -1.5450 o         1 MOL     -0.521441
     45 C15        -3.8410    3.9830   -2.3920 c3        1 MOL     -0.285068
     46 C16        -2.8100    2.7900   -2.4780 c         1 MOL      0.750085
     47 O7         -2.0130    2.7740   -3.4570 o         1 MOL     -0.710382
     48 O8         -2.9170    1.8890   -1.6490 o         1 MOL     -0.710382
     49 H21        -3.0950    3.1890    0.1380 hn        1 MOL      0.026513
     50 H22        -4.7150    5.3600   -0.9690 h1        1 MOL      0.090409
     51 H23        -3.4320    4.8570   -2.8900 hc        1 MOL      0.081316
     52 H24        -4.6780    3.7120   -3.0390 hc        1 MOL      0.081316
     53 N5         -5.5920    2.4970    0.0790 n         1 MOL      0.025349
     54 C17        -6.8390    1.7940    0.4690 c3        1 MOL     -0.193505
     55 C18        -7.1930    0.7830   -0.6320 c         1 MOL      0.591878
     56 O9         -8.3630    0.6550   -0.9040 o         1 MOL     -0.594028
     57 H25        -4.7280    2.2310    0.5310 hn        1 MOL      0.030897
     58 H26        -7.7480    2.3920    0.4700 h1        1 MOL      0.101145
     59 H27        -6.7470    1.2160    1.3920 h1        1 MOL      0.101145
     60 N6         -6.3420    0.2270   -1.4380 n         1 MOL     -0.241446
     61 C19        -6.7720   -0.8160   -2.4830 c3        1 MOL     -0.097548
     62 C20        -6.9900   -2.1820   -1.8770 c         1 MOL      0.461286
     63 O10        -7.4640   -3.0530   -2.6170 o         1 MOL     -0.543728
     64 C21        -5.6290   -0.9150   -3.4880 c3        1 MOL     -0.146611
     65 C22        -4.2090   -1.2800   -2.9710 c         1 MOL      0.721500
     66 O11        -3.2610   -0.8430   -3.6110 o         1 MOL     -0.692700
     67 O12        -4.0030   -1.8520   -1.8670 o         1 MOL     -0.692700
     68 H28        -5.3580    0.3270   -1.2520 hn        1 MOL      0.211431
     69 H29        -7.6400   -0.5060   -3.0670 h1        1 MOL      0.149948
     70 H30        -5.5210    0.0660   -3.9420 hc        1 MOL      0.056751
     71 H31        -5.9150   -1.5770   -4.3040 hc        1 MOL      0.056751
     72 N7         -6.7000   -2.4600   -0.5690 n         1 MOL     -0.284480
     73 C23        -6.7880   -3.8280    0.0690 c3        1 MOL     -0.084504
     74 C24        -5.4520   -4.6680    0.1490 c         1 MOL      0.463705
     75 O13        -5.5490   -5.8380    0.5120 o         1 MOL     -0.560644
     76 H32        -6.4190   -1.7010    0.0400 hn        1 MOL      0.235358
     77 H33        -7.5750   -4.4820   -0.3050 h1        1 MOL      0.087020
     78 H34        -7.0360   -3.6190    1.1070 h1        1 MOL      0.087020
     79 N8         -4.2980   -4.0780   -0.0430 n         1 MOL     -0.151441
     80 C25        -2.9370   -4.6850   -0.0420 c3        1 MOL     -0.113400
     81 C26        -1.7560   -3.6960    0.2340 c         1 MOL      0.689517
     82 O14        -1.9680   -2.4980    0.3130 o         1 MOL     -0.696078
     83 C27        -2.6890   -5.3500   -1.3910 c3        1 MOL      0.466357
     84 C28        -3.6330   -6.4800   -1.7360 c3        1 MOL     -0.535656
     85 O15        -2.8900   -4.4860   -2.4420 oh        1 MOL     -0.607940
     86 H35        -4.3060   -3.0850   -0.2510 hn        1 MOL      0.177720
     87 H36        -2.8860   -5.5200    0.6640 h1        1 MOL      0.053940
     88 H37        -1.6560   -5.6700   -1.3350 h1        1 MOL     -0.010392
     89 H38        -3.7290   -4.0460   -2.2520 ho        1 MOL      0.377618
     90 H39        -3.8860   -7.0310   -0.8340 hc        1 MOL      0.133538
     91 H40        -4.5810   -6.1690   -2.1510 hc        1 MOL      0.133538
     92 H41        -3.0830   -7.1460   -2.4070 hc        1 MOL      0.133538
     93 N9         -0.5800   -4.2470    0.5020 n         1 MOL     -0.596370
     94 C29         0.5960   -3.5450    1.0030 c3        1 MOL      0.088308
     95 C30         1.8600   -3.9370    0.1920 c         1 MOL      0.541811
     96 O16         2.2590   -5.1020    0.1580 o         1 MOL     -0.549972
     97 C31         0.7680   -3.6890    2.5000 c3        1 MOL     -0.006275
     98 C32        -0.2840   -2.7600    3.3380 c3        1 MOL      0.007234
     99 C33         2.2570   -3.3080    2.9440 c3        1 MOL     -0.112669
    100 C34        -0.0970   -2.8060    4.8200 c3        1 MOL     -0.223492
    101 H42        -0.4870   -5.2390    0.2850 hn        1 MOL      0.306596
    102 H43         0.4570   -2.4680    0.8720 h1        1 MOL      0.031202
    103 H44         0.7190   -4.7530    2.6990 hc        1 MOL      0.033995
    104 H45        -1.2230   -3.2380    3.0690 hc        1 MOL      0.075914
    105 H46        -0.2040   -1.7150    3.0210 hc        1 MOL      0.075914
    106 H47         2.9550   -4.0400    2.5160 hc        1 MOL      0.015509
    107 H48         2.5460   -2.2780    2.7180 hc        1 MOL      0.015509
    108 H49         2.3460   -3.3820    4.0210 hc        1 MOL      0.015509
    109 H50        -0.9480   -2.3410    5.2980 hc        1 MOL      0.053504
    110 H51         0.0540   -3.8240    5.1970 hc        1 MOL      0.053504
    111 H52         0.8230   -2.2590    5.0340 hc        1 MOL      0.053504
    112 N10         2.3850   -2.9270   -0.4800 n         1 MOL     -0.155924
    113 C35         3.6310   -2.8920   -1.2350 c3        1 MOL     -0.311693
    114 C36         4.9000   -2.7390   -0.4120 c         1 MOL      0.461080
    115 O17         4.8010   -2.3810    0.7610 o         1 MOL     -0.287838
    116 C37         3.6910   -1.7980   -2.2790 c3        1 MOL      0.488159
    117 C38         2.6660   -1.9150   -3.3670 c3        1 MOL     -0.502510
    118 O18         3.5520   -0.5540   -1.6650 oh        1 MOL     -0.637800
    119 H53         1.9010   -2.0590   -0.3070 hn        1 MOL      0.154139
    120 H54         3.6420   -3.8310   -1.8000 h1        1 MOL      0.114644
    121 H55         4.5890   -1.8580   -2.9030 h1        1 MOL     -0.021536
    122 H56         2.7240   -0.6470   -1.1950 ho        1 MOL      0.443887
    123 H57         1.6810   -1.6030   -3.0170 hc        1 MOL      0.133161
    124 H58         2.9370   -1.3780   -4.2720 hc        1 MOL      0.133161
    125 H59         2.6170   -2.9810   -3.5930 hc        1 MOL      0.133161
    126 N11         6.1370   -2.8190   -1.0520 n         1 MOL     -0.410882
    127 C39         7.4050   -2.4930   -0.4150 c3        1 MOL     -0.131320
    128 C40         7.3700   -1.0720    0.2240 c         1 MOL      0.262590
    129 O19         7.7960   -0.9440    1.3690 o         1 MOL     -0.448918
    130 C41         8.6210   -2.4910   -1.4420 c3        1 MOL      0.484350
    131 C42         9.2470   -3.8640   -1.7830 c3        1 MOL     -0.467322
    132 O20         8.2410   -1.7280   -2.5250 oh        1 MOL     -0.616529
    133 H60         6.2050   -3.2950   -1.9430 hn        1 MOL      0.292828
    134 H61         7.5700   -3.2090    0.3870 h1        1 MOL      0.129671
    135 H62         9.3710   -1.8970   -0.9300 h1        1 MOL     -0.015909
    136 H63         8.8920   -1.0260   -2.5830 ho        1 MOL      0.354381
    137 H64         8.4660   -4.6150   -1.8280 hc        1 MOL      0.129054
    138 H65         9.7030   -3.7500   -2.7750 hc        1 MOL      0.129054
    139 H66         9.9180   -4.1530   -0.9710 hc        1 MOL      0.129054
    140 N12         6.9700   -0.0110   -0.4470 n         1 MOL     -0.143807
    141 C43         7.0160    1.3520    0.1570 c3        1 MOL     -0.185808
    142 C44         6.0530    1.6510    1.3170 c         1 MOL      0.395910
    143 O21         6.3050    2.4060    2.2440 o         1 MOL     -0.502637
    144 C45         6.9490    2.5130   -0.8320 c3        1 MOL      0.015181
    145 C46         7.8900    2.3220   -2.0340 c3        1 MOL     -0.073731
    146 C47         7.5070    3.2500   -3.2200 c3        1 MOL     -0.100729
    147 C48         8.5310    3.0960   -4.3670 c3        1 MOL      0.067660
    148 N13         8.0530    3.8060   -5.5800 n4        1 MOL     -0.231207
    149 H67         6.5520   -0.1900   -1.3480 hn        1 MOL      0.258019
    150 H68         7.9770    1.4900    0.6460 h1        1 MOL      0.132797
    151 H69         7.1930    3.4210   -0.2930 hc        1 MOL      0.051455
    152 H70         5.9410    2.6900   -1.2040 hc        1 MOL      0.051455
    153 H71         7.8280    1.3090   -2.4110 hc        1 MOL      0.039679
    154 H72         8.8890    2.6680   -1.7900 hc        1 MOL      0.039679
    155 H73         7.5300    4.2810   -2.8770 hc        1 MOL      0.052429
    156 H74         6.4770    3.0530   -3.5050 hc        1 MOL      0.052429
    157 H75         8.7450    2.0610   -4.6420 hx        1 MOL      0.077998
    158 H76         9.5040    3.5300   -4.1390 hx        1 MOL      0.077998
    159 H77         8.3850    3.4110   -6.4490 hn        1 MOL      0.260771
    160 H78         7.0560    3.6800   -5.6710 hn        1 MOL      0.260771
    161 H79         8.1410    4.8080   -5.5540 hn        1 MOL      0.260771
    162 N14         4.9550    0.9530    1.3040 n         1 MOL     -0.105686
    163 C49         4.0210    0.9400    2.3980 c3        1 MOL     -0.215987
    164 C50         4.6440    0.0390    3.5800 c         1 MOL      0.535421
    165 O22         4.5540    0.4650    4.7070 o         1 MOL     -0.564511
    166 C51         2.6970    0.2780    1.9110 c3        1 MOL      0.165814
    167 C52         2.0070    1.0980    0.8480 c3        1 MOL     -0.022818
    168 C53         0.7370    0.4360    0.2900 c         1 MOL      0.694162
    169 O23         0.8010   -0.5290   -0.4960 o         1 MOL     -0.693641
    170 O24        -0.4120    0.8320    0.6440 o         1 MOL     -0.693641
    171 H80         4.9440    0.2400    0.5870 hn        1 MOL      0.108563
    172 H81         3.8290    1.9690    2.6920 h1        1 MOL      0.136886
    173 H82         2.0090   -0.0230    2.6960 hc        1 MOL      0.032787
    174 H83         2.9730   -0.6110    1.3480 hc        1 MOL      0.032787
    175 H84         2.6920    1.2320   -0.0010 hc        1 MOL     -0.062174
    176 H85         1.7220    2.0620    1.2700 hc        1 MOL     -0.062174
    177 N15         5.1020   -1.1310    3.2420 n         1 MOL     -0.072450
    178 C54         5.7500   -2.0640    4.2030 c3        1 MOL     -0.264339
    179 H86         5.7450   -1.6200    5.1990 h1        1 MOL      0.103949
    180 H87         5.2010   -3.0050    4.2220 h1        1 MOL      0.103949
    181 H88         6.7780   -2.2480    3.8940 h1        1 MOL      0.103949
    182 H89         4.9810   -1.3950    2.2770 hn        1 MOL      0.081448
    183 Ca1        -1.9420   -0.3570   -1.1140 Ca        1 MOL      1.783865
    184 O25        -0.8540   -2.4470   -2.4820 oh        1 MOL     -0.887335
    185 H90        -1.5950   -3.0540   -2.5260 ho        1 MOL      0.398608
    186 H91        -0.4060   -2.5560   -3.3130 ho        1 MOL      0.398608
    187 O26        -0.0150    0.9110   -3.0630 oh        1 MOL     -0.887335
    188 H92         0.6760    0.9150   -3.7260 ho        1 MOL      0.398608
    189 H93        -0.6410    1.5730   -3.3630 ho        1 MOL      0.398608
@<TRIPOS>BOND
     1    1    2 1   
     2    1    4 1   
     3    1    5 1   
     4    1    6 1   
     5    2    3 2   
     6    2    7 1   
     7    7    8 1   
     8    7   15 1   
     9    8    9 1   
    10    8   11 1   
    11    8   16 1   
    12    9   10 2   
    13    9   19 1   
    14   11   12 1   
    15   11   17 1   
    16   11   18 1   
    17   12   13 1   
    18   12   14 1   
    19   19   20 1   
    20   19   28 1   
    21   20   21 1   
    22   20   23 1   
    23   20   29 1   
    24   21   22 2   
    25   21   41 1   
    26   23   24 1   
    27   23   30 1   
    28   23   31 1   
    29   24   25 1   
    30   24   32 1   
    31   24   33 1   
    32   25   26 1   
    33   25   34 1   
    34   25   35 1   
    35   26   27 1   
    36   26   36 1   
    37   26   37 1   
    38   27   38 1   
    39   27   39 1   
    40   27   40 1   
    41   41   42 1   
    42   41   49 1   
    43   42   43 1   
    44   42   45 1   
    45   42   50 1   
    46   43   44 2   
    47   43   53 1   
    48   45   46 1   
    49   45   51 1   
    50   45   52 1   
    51   46   47 1   
    52   46   48 1   
    53   53   54 1   
    54   53   57 1   
    55   54   55 1   
    56   54   58 1   
    57   54   59 1   
    58   55   56 2   
    59   55   60 1   
    60   60   61 1   
    61   60   68 1   
    62   61   62 1   
    63   61   64 1   
    64   61   69 1   
    65   62   63 2   
    66   62   72 1   
    67   64   65 1   
    68   64   70 1   
    69   64   71 1   
    70   65   66 1   
    71   65   67 1   
    72   72   73 1   
    73   72   76 1   
    74   73   74 1   
    75   73   77 1   
    76   73   78 1   
    77   74   75 2   
    78   74   79 1   
    79   79   80 1   
    80   79   86 1   
    81   80   81 1   
    82   80   83 1   
    83   80   87 1   
    84   81   82 2   
    85   81   93 1   
    86   83   84 1   
    87   83   85 1   
    88   83   88 1   
    89   84   90 1   
    90   84   91 1   
    91   84   92 1   
    92   85   89 1   
    93   93   94 1   
    94   93  101 1   
    95   94   95 1   
    96   94   97 1   
    97   94  102 1   
    98   95   96 2   
    99   95  112 1   
   100   97   98 1   
   101   97   99 1   
   102   97  103 1   
   103   98  100 1   
   104   98  104 1   
   105   98  105 1   
   106   99  106 1   
   107   99  107 1   
   108   99  108 1   
   109  100  109 1   
   110  100  110 1   
   111  100  111 1   
   112  112  113 1   
   113  112  119 1   
   114  113  114 1   
   115  113  116 1   
   116  113  120 1   
   117  114  115 2   
   118  114  126 1   
   119  116  117 1   
   120  116  118 1   
   121  116  121 1   
   122  117  123 1   
   123  117  124 1   
   124  117  125 1   
   125  118  122 1   
   126  126  127 1   
   127  126  133 1   
   128  127  128 1   
   129  127  130 1   
   130  127  134 1   
   131  128  129 2   
   132  128  140 1   
   133  130  131 1   
   134  130  132 1   
   135  130  135 1   
   136  131  137 1   
   137  131  138 1   
   138  131  139 1   
   139  132  136 1   
   140  140  141 1   
   141  140  149 1   
   142  141  142 1   
   143  141  144 1   
   144  141  150 1   
   145  142  143 2   
   146  142  162 1   
   147  144  145 1   
   148  144  151 1   
   149  144  152 1   
   150  145  146 1   
   151  145  153 1   
   152  145  154 1   
   153  146  147 1   
   154  146  155 1   
   155  146  156 1   
   156  147  148 1   
   157  147  157 1   
   158  147  158 1   
   159  148  159 1   
   160  148  160 1   
   161  148  161 1   
   162  162  163 1   
   163  162  171 1   
   164  163  164 1   
   165  163  166 1   
   166  163  172 1   
   167  164  165 2   
   168  164  177 1   
   169  166  167 1   
   170  166  173 1   
   171  166  174 1   
   172  167  168 1   
   173  167  175 1   
   174  167  176 1   
   175  168  169 1   
   176  168  170 1   
   177  177  178 1   
   178  177  182 1   
   179  178  179 1   
   180  178  180 1   
   181  178  181 1   
   182  184  185 1   
   183  184  186 1   
   184  187  188 1   
   185  187  189 1   
@<TRIPOS>SUBSTRUCTURE
     1 MOL         1 TEMP              0 ****  ****    0 ROOT
