@<TRIPOS>MOLECULE
MOL
  186   183     1     0     0
SMALL
resp


@<TRIPOS>ATOM
      1 C1          0.2790   -1.1220    6.4270 c3        1 MOL     -0.371288
      2 C2          0.5300   -1.3510    4.9150 c         1 MOL      0.778597
      3 O1         -0.2440   -1.9540    4.2270 o         1 MOL     -0.550158
      4 H1          0.4610   -2.0500    6.9690 hc        1 MOL      0.086057
      5 H2          0.9520   -0.3480    6.7940 hc        1 MOL      0.086057
      6 H3         -0.7540   -0.8090    6.5810 hc        1 MOL      0.086057
      7 N1          1.6900   -0.8810    4.4410 n         1 MOL     -0.687305
      8 C3          2.2710   -1.2390    3.1080 c3        1 MOL      0.255978
      9 C4          2.5180   -2.7070    2.9730 c         1 MOL      0.527530
     10 O2          3.1390   -3.3260    3.8400 o         1 MOL     -0.612631
     11 C5          3.5600   -0.4100    2.9420 c3        1 MOL     -0.227062
     12 C6          4.3040   -0.5530    1.6200 c         1 MOL      0.826785
     13 O3          3.7100   -1.1250    0.6450 o         1 MOL     -0.703362
     14 O4          5.4750   -0.0720    1.5120 o         1 MOL     -0.703362
     15 H4          2.3170   -0.3370    5.0240 hn        1 MOL      0.330272
     16 H5          1.5090   -1.0060    2.3650 h1        1 MOL      0.013773
     17 H6          4.2080   -0.7490    3.7440 hc        1 MOL      0.034607
     18 H7          3.3810    0.6600    3.1090 hc        1 MOL      0.034607
     19 N2          2.0590   -3.2980    1.8820 n         1 MOL     -0.080974
     20 C7          2.0000   -4.7230    1.5730 c3        1 MOL     -0.014909
     21 C8          3.0670   -5.0080    0.5380 c         1 MOL      0.434945
     22 O5          3.8800   -5.9460    0.6800 o         1 MOL     -0.599406
     23 C9          0.6060   -5.1710    1.1490 c3        1 MOL      0.127923
     24 C10        -0.3880   -5.1180    2.2480 c3        1 MOL      0.339441
     25 C11         0.5950   -6.4940    0.4690 c3        1 MOL     -0.270070
     26 C12        -0.3760   -6.2090    3.3060 c3        1 MOL     -0.387974
     27 H8          1.7570   -2.6050    1.2090 hn        1 MOL     -0.041849
     28 H9          2.2070   -5.3390    2.4510 h1        1 MOL      0.040649
     29 H10         0.4170   -4.4290    0.3700 hc        1 MOL      0.002558
     30 H11        -1.3490   -5.0900    1.7340 hc        1 MOL     -0.052866
     31 H12        -0.3930   -4.1870    2.8110 hc        1 MOL     -0.052866
     32 H13        -0.3610   -7.0220    0.5080 hc        1 MOL      0.053285
     33 H14         0.9250   -6.4020   -0.5670 hc        1 MOL      0.053285
     34 H15         1.3090   -7.1880    0.9140 hc        1 MOL      0.053285
     35 H16         0.6450   -6.5040    3.5370 hc        1 MOL      0.073843
     36 H17        -0.9340   -5.8090    4.1530 hc        1 MOL      0.073843
     37 H18        -0.9140   -7.0670    2.9000 hc        1 MOL      0.073843
     38 N3          3.2060   -4.2070   -0.4760 n         1 MOL     -0.195040
     39 C13         4.1320   -4.5600   -1.5670 c3        1 MOL     -0.027910
     40 C14         5.5060   -3.8680   -1.3400 c         1 MOL      0.348047
     41 O6          6.4650   -4.2300   -2.0190 o         1 MOL     -0.575708
     42 C15         3.4900   -4.4420   -2.9050 c3        1 MOL      0.019859
     43 C16         2.9720   -3.0530   -3.2630 c         1 MOL      0.741161
     44 O7          2.4790   -2.7940   -4.4260 o         1 MOL     -0.741634
     45 O8          3.1440   -2.0550   -2.5500 o         1 MOL     -0.741634
     46 H19         2.7810   -3.2970   -0.5100 hn        1 MOL      0.174610
     47 H20         4.2090   -5.6400   -1.4540 h1        1 MOL      0.094916
     48 H21         2.6050   -5.0900   -2.9390 hc        1 MOL     -0.005907
     49 H22         4.1230   -4.8660   -3.6890 hc        1 MOL     -0.005907
     50 N4          5.6550   -2.8730   -0.5570 n         1 MOL      0.211594
     51 C17         6.9830   -2.3750   -0.0880 c3        1 MOL     -0.239022
     52 C18         7.6350   -1.3260   -0.9060 c         1 MOL      0.751823
     53 O9          8.5070   -1.5850   -1.7340 o         1 MOL     -0.573429
     54 H23         4.8240   -2.4180   -0.2010 hn        1 MOL     -0.052789
     55 H24         7.6550   -3.2400   -0.1150 h1        1 MOL      0.058016
     56 H25         6.8970   -2.2210    0.9870 h1        1 MOL      0.058016
     57 N5          7.1380   -0.0760   -0.7210 n         1 MOL     -0.738695
     58 C19         7.4850    1.0790   -1.5500 c3        1 MOL      0.206089
     59 C20         7.5150    2.3810   -0.7310 c         1 MOL      0.450725
     60 O10         7.9420    3.4150   -1.2370 o         1 MOL     -0.566941
     61 C21         6.5580    1.1880   -2.7310 c3        1 MOL     -0.281016
     62 C22         5.1190    1.1340   -2.3240 c         1 MOL      0.720423
     63 O11         4.7620    1.6880   -1.2310 o         1 MOL     -0.715180
     64 O12         4.2780    0.5910   -3.0960 o         1 MOL     -0.715180
     65 H26         6.4610    0.1030    0.0040 hn        1 MOL      0.368050
     66 H27         8.4820    1.0130   -1.9930 h1        1 MOL      0.030401
     67 H28         6.6620    0.3110   -3.3610 hc        1 MOL      0.090910
     68 H29         6.7320    2.0840   -3.3260 hc        1 MOL      0.090910
     69 N6          7.0850    2.2720    0.5120 n         1 MOL     -0.297398
     70 C23         6.9570    3.2650    1.5160 c3        1 MOL     -0.067505
     71 C24         5.5910    3.9960    1.6580 c         1 MOL      0.449223
     72 O13         5.6030    5.0360    2.3190 o         1 MOL     -0.589701
     73 H30         6.7380    1.3960    0.8680 hn        1 MOL      0.240086
     74 H31         7.7280    4.0150    1.3470 h1        1 MOL      0.075584
     75 H32         7.2730    2.8380    2.4710 h1        1 MOL      0.075584
     76 N7          4.5690    3.5590    0.9080 n         1 MOL     -0.113738
     77 C25         3.1950    4.1370    0.9180 c3        1 MOL     -0.270135
     78 C26         2.0330    3.1590    0.9110 c         1 MOL      0.733428
     79 O14         2.0760    2.0700    0.3650 o         1 MOL     -0.653314
     80 C27         3.0950    5.2200   -0.1660 c3        1 MOL      0.311848
     81 C28         4.0130    6.4630   -0.0410 c3        1 MOL     -0.496961
     82 C29         3.5580    7.6350   -0.9250 c         1 MOL      0.649517
     83 N8          4.3580    8.0050   -1.8770 n         1 MOL     -0.694762
     84 O15         2.4730    8.1980   -0.8860 o         1 MOL     -0.567367
     85 H33         4.8110    2.6910    0.4460 hn        1 MOL      0.120898
     86 H34         3.1500    4.6800    1.8610 h1        1 MOL      0.090400
     87 H35         2.0690    5.5550   -0.0240 hc        1 MOL     -0.028804
     88 H36         3.0610    4.7390   -1.1530 hc        1 MOL     -0.028804
     89 H37         5.0160    6.1180   -0.2940 hc        1 MOL      0.148392
     90 H38         4.1630    6.7580    0.9970 hc        1 MOL      0.148392
     91 H39         5.3100    7.7050   -1.7040 hn        1 MOL      0.329918
     92 H40         4.0480    8.7620   -2.4710 hn        1 MOL      0.329918
     93 N9          0.9420    3.6000    1.5930 n         1 MOL     -0.529881
     94 C30        -0.3400    2.7630    1.6040 c3        1 MOL      0.170479
     95 C31        -1.3250    3.2680    0.5860 c         1 MOL      0.376370
     96 O16        -1.8480    4.3910    0.6950 o         1 MOL     -0.575893
     97 C32        -1.0190    3.0460    2.9740 c3        1 MOL      0.124088
     98 C33        -2.2680    2.1660    3.1930 c3        1 MOL     -0.168864
     99 C34         0.0010    2.6240    4.0350 c3        1 MOL     -0.168864
    100 H41         1.0820    4.4100    2.1770 hn        1 MOL      0.308681
    101 H42        -0.2250    1.6950    1.4290 h1        1 MOL      0.097594
    102 H43        -1.2620    4.1010    3.1310 hc        1 MOL      0.015234
    103 H44        -3.0320    2.4450    2.4610 hc        1 MOL      0.021951
    104 H45        -2.0760    1.0910    3.0950 hc        1 MOL      0.021951
    105 H46        -2.6390    2.1810    4.2070 hc        1 MOL      0.021951
    106 H47        -0.3100    2.7630    5.0680 hc        1 MOL      0.021951
    107 H48         0.1320    1.5540    3.8780 hc        1 MOL      0.021951
    108 H49         0.9430    3.1430    3.9680 hc        1 MOL      0.021951
    109 N10        -1.7510    2.3620   -0.2940 n         1 MOL     -0.242617
    110 C35        -2.9170    2.5390   -1.2630 c3        1 MOL      0.205618
    111 C36        -4.2050    1.9430   -0.6700 c         1 MOL      0.366209
    112 O17        -4.1570    1.2420    0.3350 o         1 MOL     -0.261889
    113 C37        -2.5470    1.9870   -2.6610 c3        1 MOL     -0.641888
    114 C38        -2.9970    0.6040   -2.9330 c         1 MOL      0.796120
    115 N11        -2.1480   -0.3650   -2.8580 n         1 MOL     -0.796899
    116 O18        -4.1050    0.4000   -3.3970 o         1 MOL     -0.609204
    117 H50        -1.1640    1.5510   -0.4160 hn        1 MOL      0.148012
    118 H51        -3.1520    3.6040   -1.3530 h1        1 MOL      0.050345
    119 H52        -1.4610    2.0030   -2.6890 hc        1 MOL      0.201307
    120 H53        -2.8430    2.7140   -3.4120 hc        1 MOL      0.201307
    121 H54        -1.2490   -0.1290   -2.4580 hn        1 MOL      0.396676
    122 H55        -2.2990   -1.2000   -3.4120 hn        1 MOL      0.396676
    123 N12        -5.3330    2.2520   -1.2690 n         1 MOL     -0.562929
    124 C39        -6.6210    1.8510   -0.6480 c3        1 MOL      0.209821
    125 C40        -6.8210    0.3420   -0.4150 c         1 MOL      0.587892
    126 O19        -7.3830   -0.0310    0.5830 o         1 MOL     -0.484991
    127 C41        -7.8230    2.3960   -1.4830 c3        1 MOL     -0.098074
    128 C42        -9.1920    2.2160   -0.9260 ca        1 MOL      0.158865
    129 C43        -9.4740    2.6780    0.3770 ca        1 MOL     -0.329830
    130 C44       -10.1240    1.4830   -1.6060 ca        1 MOL     -0.329830
    131 C45       -10.6720    2.4490    0.9980 ca        1 MOL     -0.079461
    132 C46       -11.3310    1.2180   -0.9630 ca        1 MOL     -0.079461
    133 C47       -11.6630    1.7410    0.3170 ca        1 MOL      0.162723
    134 O20       -12.8540    1.5760    0.9270 oh        1 MOL     -0.427554
    135 H56        -5.2830    2.7520   -2.1480 hn        1 MOL      0.308995
    136 H57        -6.6030    2.3750    0.3020 h1        1 MOL      0.032134
    137 H58        -7.7260    2.0370   -2.5100 hc        1 MOL      0.037645
    138 H59        -7.7660    3.4770   -1.5730 hc        1 MOL      0.037645
    139 H60        -8.6880    3.1250    0.9650 ha        1 MOL      0.170606
    140 H61        -9.8870    1.0280   -2.5520 ha        1 MOL      0.170606
    141 H62       -10.8880    2.7960    1.9970 ha        1 MOL      0.103363
    142 H63       -12.0180    0.6780   -1.5920 ha        1 MOL      0.103363
    143 H64       -13.4600    1.3050    0.2280 ho        1 MOL      0.321195
    144 N13        -6.1660   -0.4630   -1.2940 n         1 MOL     -0.520650
    145 C48        -6.0090   -1.9060   -1.0480 c3        1 MOL      0.064002
    146 C49        -5.3160   -2.2380    0.2650 c         1 MOL      0.205142
    147 O21        -5.7660   -3.1860    0.9840 o         1 MOL     -0.487073
    148 C50        -5.1750   -2.5830   -2.2010 c3        1 MOL      0.205639
    149 C51        -5.8310   -2.5820   -3.6020 c3        1 MOL     -0.408191
    150 C52        -4.8720   -3.0950   -4.7470 c         1 MOL      0.778145
    151 O22        -4.2080   -4.1310   -4.5520 o         1 MOL     -0.744783
    152 O23        -4.8310   -2.5480   -5.9030 o         1 MOL     -0.744783
    153 H65        -5.6850   -0.0770   -2.0940 hn        1 MOL      0.332942
    154 H66        -6.9880   -2.3790   -0.9570 h1        1 MOL      0.053814
    155 H67        -4.9080   -3.5930   -1.8900 hc        1 MOL     -0.004793
    156 H68        -4.2190   -2.0570   -2.2840 hc        1 MOL     -0.004793
    157 H69        -6.1090   -1.5420   -3.7430 hc        1 MOL      0.048772
    158 H70        -6.7310   -3.1900   -3.6080 hc        1 MOL      0.048772
    159 N14        -4.1940   -1.5630    0.5050 n         1 MOL     -0.041713
    160 C53        -3.4300   -1.7510    1.6260 c3        1 MOL      0.019474
    161 C54        -4.0980   -1.2340    2.9510 c         1 MOL      0.357891
    162 O24        -4.0140   -1.8800    3.9890 o         1 MOL     -0.552117
    163 C55        -2.0330   -1.1840    1.3490 c3        1 MOL     -0.203620
    164 C56        -1.3880   -1.9530    0.1700 c3        1 MOL     -0.042381
    165 C57        -0.1750   -1.1410   -0.2410 c         1 MOL      0.829243
    166 O25         0.8840   -1.7300   -0.2040 o         1 MOL     -0.762603
    167 O26        -0.1840    0.0600   -0.6490 o         1 MOL     -0.762603
    168 H71        -3.9050   -0.7340    0.0050 hn        1 MOL      0.119808
    169 H72        -3.3970   -2.8050    1.8950 h1        1 MOL      0.073122
    170 H73        -1.4840   -1.2390    2.2830 hc        1 MOL      0.103517
    171 H74        -2.1350   -0.1170    1.1750 hc        1 MOL      0.103517
    172 H75        -1.9810   -2.0310   -0.7430 hc        1 MOL     -0.001945
    173 H76        -1.1810   -2.9930    0.4340 hc        1 MOL     -0.001945
    174 N15        -4.9630   -0.2320    2.8170 n         1 MOL      0.087229
    175 C58        -5.7850    0.3620    3.8100 c3        1 MOL     -0.082674
    176 H77        -5.7020   -0.2060    4.7360 h1        1 MOL      0.033473
    177 H78        -5.4610    1.3880    3.9830 h1        1 MOL      0.033473
    178 H79        -6.8220    0.3590    3.4730 h1        1 MOL      0.033473
    179 H80        -5.0080    0.1130    1.8670 hn        1 MOL     -0.058575
    180 Ca1         2.4550    0.0550   -1.3220 Ca        1 MOL      1.772566
    181 O27         0.9530   -0.3300   -3.5270 oh        1 MOL     -0.824823
    182 H81         1.1620   -1.2560   -3.6970 ho        1 MOL      0.400583
    183 H82         0.7940    0.0420   -4.4020 ho        1 MOL      0.400583
    184 O28         2.1020    2.5270   -2.6660 oh        1 MOL     -0.824823
    185 H83         2.9310    2.8930   -2.3730 ho        1 MOL      0.400583
    186 H84         2.0900    2.6910   -3.6060 ho        1 MOL      0.400583
@<TRIPOS>BOND
     1    1    2 1   
     2    1    4 1   
     3    1    5 1   
     4    1    6 1   
     5    2    3 2   
     6    2    7 1   
     7    7    8 1   
     8    7   15 1   
     9    8    9 1   
    10    8   11 1   
    11    8   16 1   
    12    9   10 2   
    13    9   19 1   
    14   11   12 1   
    15   11   17 1   
    16   11   18 1   
    17   12   13 1   
    18   12   14 1   
    19   19   20 1   
    20   19   27 1   
    21   20   21 1   
    22   20   23 1   
    23   20   28 1   
    24   21   22 2   
    25   21   38 1   
    26   23   24 1   
    27   23   25 1   
    28   23   29 1   
    29   24   26 1   
    30   24   30 1   
    31   24   31 1   
    32   25   32 1   
    33   25   33 1   
    34   25   34 1   
    35   26   35 1   
    36   26   36 1   
    37   26   37 1   
    38   38   39 1   
    39   38   46 1   
    40   39   40 1   
    41   39   42 1   
    42   39   47 1   
    43   40   41 2   
    44   40   50 1   
    45   42   43 1   
    46   42   48 1   
    47   42   49 1   
    48   43   44 1   
    49   43   45 1   
    50   50   51 1   
    51   50   54 1   
    52   51   52 1   
    53   51   55 1   
    54   51   56 1   
    55   52   53 2   
    56   52   57 1   
    57   57   58 1   
    58   57   65 1   
    59   58   59 1   
    60   58   61 1   
    61   58   66 1   
    62   59   60 2   
    63   59   69 1   
    64   61   62 1   
    65   61   67 1   
    66   61   68 1   
    67   62   63 1   
    68   62   64 1   
    69   69   70 1   
    70   69   73 1   
    71   70   71 1   
    72   70   74 1   
    73   70   75 1   
    74   71   72 2   
    75   71   76 1   
    76   76   77 1   
    77   76   85 1   
    78   77   78 1   
    79   77   80 1   
    80   77   86 1   
    81   78   79 2   
    82   78   93 1   
    83   80   81 1   
    84   80   87 1   
    85   80   88 1   
    86   81   82 1   
    87   81   89 1   
    88   81   90 1   
    89   82   83 1   
    90   82   84 2   
    91   83   91 1   
    92   83   92 1   
    93   93   94 1   
    94   93  100 1   
    95   94   95 1   
    96   94   97 1   
    97   94  101 1   
    98   95   96 2   
    99   95  109 1   
   100   97   98 1   
   101   97   99 1   
   102   97  102 1   
   103   98  103 1   
   104   98  104 1   
   105   98  105 1   
   106   99  106 1   
   107   99  107 1   
   108   99  108 1   
   109  109  110 1   
   110  109  117 1   
   111  110  111 1   
   112  110  113 1   
   113  110  118 1   
   114  111  112 2   
   115  111  123 1   
   116  113  114 1   
   117  113  119 1   
   118  113  120 1   
   119  114  115 1   
   120  114  116 2   
   121  115  121 1   
   122  115  122 1   
   123  123  124 1   
   124  123  135 1   
   125  124  125 1   
   126  124  127 1   
   127  124  136 1   
   128  125  126 2   
   129  125  144 1   
   130  127  128 1   
   131  127  137 1   
   132  127  138 1   
   133  128  129 ar  
   134  128  130 ar  
   135  129  131 ar  
   136  129  139 1   
   137  130  132 ar  
   138  130  140 1   
   139  131  133 ar  
   140  131  141 1   
   141  132  133 ar  
   142  132  142 1   
   143  133  134 1   
   144  134  143 1   
   145  144  145 1   
   146  144  153 1   
   147  145  146 1   
   148  145  148 1   
   149  145  154 1   
   150  146  147 2   
   151  146  159 1   
   152  148  149 1   
   153  148  155 1   
   154  148  156 1   
   155  149  150 1   
   156  149  157 1   
   157  149  158 1   
   158  150  151 1   
   159  150  152 1   
   160  159  160 1   
   161  159  168 1   
   162  160  161 1   
   163  160  163 1   
   164  160  169 1   
   165  161  162 2   
   166  161  174 1   
   167  163  164 1   
   168  163  170 1   
   169  163  171 1   
   170  164  165 1   
   171  164  172 1   
   172  164  173 1   
   173  165  166 1   
   174  165  167 1   
   175  174  175 1   
   176  174  179 1   
   177  175  176 1   
   178  175  177 1   
   179  175  178 1   
   180  181  182 1   
   181  181  183 1   
   182  184  185 1   
   183  184  186 1   
@<TRIPOS>SUBSTRUCTURE
     1 MOL         1 TEMP              0 ****  ****    0 ROOT
