@<TRIPOS>MOLECULE
MOL
  186   183     1     0     0
SMALL
resp


@<TRIPOS>ATOM
      1 C1         -0.3920   -3.3990   -5.4770 c3        1 MOL     -0.389246
      2 C2         -1.0830   -3.2640   -4.1170 c         1 MOL      0.690528
      3 O1         -0.5470   -3.7570   -3.0980 o         1 MOL     -0.580856
      4 H1         -0.8530   -2.7120   -6.1880 hc        1 MOL      0.097469
      5 H2          0.6660   -3.1580   -5.3730 hc        1 MOL      0.097469
      6 H3         -0.4990   -4.4210   -5.8390 hc        1 MOL      0.097469
      7 N1         -2.1580   -2.4410   -3.9730 n         1 MOL     -0.636823
      8 C3         -2.8470   -2.0230   -2.7530 c3        1 MOL      0.430056
      9 C4         -3.6100   -3.1920   -2.0850 c         1 MOL      0.426159
     10 O2         -4.5440   -3.6540   -2.7070 o         1 MOL     -0.573005
     11 C5         -3.5430   -0.6690   -2.9800 c3        1 MOL     -0.519139
     12 C6         -4.4520   -0.2470   -1.8470 c         1 MOL      0.951772
     13 O3         -5.4280    0.4550   -2.0980 o         1 MOL     -0.719951
     14 O4         -4.0950   -0.5790   -0.6800 o         1 MOL     -0.719951
     15 H4         -2.3610   -1.9130   -4.8050 hn        1 MOL      0.300388
     16 H5         -2.0800   -1.7220   -2.0310 h1        1 MOL     -0.039615
     17 H6         -4.2630   -0.7260   -3.8030 hc        1 MOL      0.101297
     18 H7         -2.7790    0.0870   -3.1470 hc        1 MOL      0.101297
     19 N2         -3.1170   -3.7030   -0.9750 n         1 MOL     -0.164643
     20 C7         -3.5020   -4.9750   -0.4030 c3        1 MOL     -0.000621
     21 C8         -4.6630   -4.8400    0.5250 c         1 MOL      0.355557
     22 O5         -5.4770   -5.7150    0.6650 o         1 MOL     -0.561770
     23 C9         -2.3930   -5.7290    0.3290 c3        1 MOL      0.358676
     24 C10        -1.0950   -5.6120   -0.5020 c3        1 MOL      0.043245
     25 C11        -2.8130   -7.1820    0.6140 c3        1 MOL     -0.457006
     26 C12         0.1480   -6.4390   -0.2530 c3        1 MOL     -0.161947
     27 H8         -2.2860   -3.3260   -0.5500 hn        1 MOL      0.134375
     28 H9         -3.7750   -5.6100   -1.2450 h1        1 MOL      0.043948
     29 H10        -2.2630   -5.2320    1.2880 hc        1 MOL     -0.057820
     30 H11        -0.7070   -4.5940   -0.4740 hc        1 MOL     -0.001048
     31 H12        -1.4350   -5.7510   -1.5320 hc        1 MOL     -0.001048
     32 H13        -1.9800   -7.6210    1.1640 hc        1 MOL      0.095636
     33 H14        -3.6610   -7.1280    1.2980 hc        1 MOL      0.095636
     34 H15        -3.1260   -7.5610   -0.3610 hc        1 MOL      0.095636
     35 H16         1.0060   -6.0660   -0.8050 hc        1 MOL      0.022863
     36 H17         0.3000   -6.3480    0.8250 hc        1 MOL      0.022863
     37 H18        -0.0870   -7.4680   -0.5180 hc        1 MOL      0.022863
     38 N3         -4.7870   -3.7130    1.2400 n         1 MOL     -0.131198
     39 C13        -5.9280   -3.3580    2.1120 c3        1 MOL      0.000843
     40 C14        -6.9970   -2.5700    1.3840 c         1 MOL      0.398211
     41 O6         -8.1770   -2.5570    1.7980 o         1 MOL     -0.540470
     42 C15        -5.3340   -2.8000    3.4770 c3        1 MOL     -0.241342
     43 C16        -3.9680   -2.1360    3.4350 c         1 MOL      0.743859
     44 O7         -3.7910   -1.2730    2.5590 o         1 MOL     -0.682326
     45 O8         -3.1210   -2.4970    4.1900 o         1 MOL     -0.682326
     46 H19        -4.0110   -3.0760    1.1270 hn        1 MOL      0.126946
     47 H20        -6.4570   -4.2890    2.3230 h1        1 MOL      0.097823
     48 H21        -5.3520   -3.5940    4.2200 hc        1 MOL      0.049587
     49 H22        -6.1340   -2.1610    3.8510 hc        1 MOL      0.049587
     50 N4         -6.6660   -2.0830    0.1500 n         1 MOL     -0.079119
     51 C17        -7.5730   -1.4010   -0.7000 c3        1 MOL     -0.261558
     52 C18        -7.9560   -0.0850   -0.0540 c         1 MOL      0.604064
     53 O9         -9.0420    0.3610   -0.1400 o         1 MOL     -0.634762
     54 H23        -5.7330   -2.2150   -0.1970 hn        1 MOL      0.130771
     55 H24        -8.4780   -1.9910   -0.6180 h1        1 MOL      0.097094
     56 H25        -7.2520   -1.2820   -1.7340 h1        1 MOL      0.097094
     57 N5         -7.0100    0.6220    0.5480 n         1 MOL     -0.130599
     58 C19        -7.2210    1.8950    1.2780 c3        1 MOL      0.036434
     59 C20        -6.8330    3.0840    0.3830 c         1 MOL      0.455029
     60 O10        -6.7760    4.2160    0.8650 o         1 MOL     -0.539705
     61 C21        -6.5630    1.9340    2.6750 c3        1 MOL     -0.196638
     62 C22        -5.0400    1.9690    2.7430 c         1 MOL      0.782750
     63 O11        -4.5240    2.0280    3.8850 o         1 MOL     -0.730747
     64 O12        -4.3820    1.8000    1.7370 o         1 MOL     -0.730747
     65 H26        -6.0700    0.2550    0.4950 hn        1 MOL     -0.007525
     66 H27        -8.3000    1.9970    1.3780 h1        1 MOL      0.070610
     67 H28        -6.9550    1.1090    3.2810 hc        1 MOL      0.032339
     68 H29        -6.8760    2.8820    3.1150 hc        1 MOL      0.032339
     69 N6         -6.6000    2.8590   -0.9260 n         1 MOL     -0.354197
     70 C23        -6.3520    3.9300   -1.8880 c3        1 MOL     -0.103807
     71 C24        -4.9810    4.5280   -1.8630 c         1 MOL      0.586383
     72 O13        -4.7680    5.4990   -2.5680 o         1 MOL     -0.627779
     73 H30        -6.5530    1.9200   -1.2980 hn        1 MOL      0.303810
     74 H31        -7.0830    4.7320   -1.8180 h1        1 MOL      0.071572
     75 H32        -6.4070    3.4940   -2.8800 h1        1 MOL      0.071572
     76 N7         -4.0150    3.9400   -1.1540 n         1 MOL     -0.262655
     77 C25        -2.6210    4.3350   -1.2360 c3        1 MOL      0.061450
     78 C26        -1.7610    3.0840   -1.4580 c         1 MOL      0.604089
     79 O14        -2.1640    1.9100   -1.1730 o         1 MOL     -0.650508
     80 C27        -2.1830    5.0770    0.0270 c3        1 MOL      0.362746
     81 C28        -2.4100    6.6050   -0.0360 c3        1 MOL     -0.456222
     82 C29        -1.9990    7.3620    1.2540 c         1 MOL      0.867073
     83 N8         -2.4250    8.5990    1.4650 n         1 MOL     -0.909691
     84 O15        -1.2550    6.8950    2.0670 o         1 MOL     -0.609111
     85 H33        -4.2340    3.1010   -0.6270 hn        1 MOL      0.170402
     86 H34        -2.4020    4.9100   -2.1350 h1        1 MOL      0.029319
     87 H35        -1.1130    4.9120    0.1920 hc        1 MOL     -0.073323
     88 H36        -2.7130    4.7320    0.9110 hc        1 MOL     -0.073323
     89 H37        -3.4880    6.7870   -0.0550 hc        1 MOL      0.083214
     90 H38        -1.8790    7.0810   -0.8620 hc        1 MOL      0.083214
     91 H39        -2.9100    9.0440    0.6990 hn        1 MOL      0.377391
     92 H40        -2.2750    9.0470    2.3660 hn        1 MOL      0.377391
     93 N9         -0.6220    3.2990   -2.1080 n         1 MOL     -0.531194
     94 C30         0.4880    2.3000   -2.1960 c3        1 MOL      0.032234
     95 C31         1.5580    2.8030   -1.2110 c         1 MOL      0.558264
     96 O16         2.0010    3.9670   -1.3000 o         1 MOL     -0.580215
     97 C32         0.9120    2.1150   -3.6250 c3        1 MOL      0.106353
     98 C33         2.1880    1.2340   -3.7740 c3        1 MOL     -0.191592
     99 C34        -0.2400    1.3780   -4.4810 c3        1 MOL     -0.191592
    100 H41        -0.3530    4.2670   -2.1900 hn        1 MOL      0.298151
    101 H42         0.1540    1.3290   -1.8350 h1        1 MOL      0.133253
    102 H43         1.1640    3.0920   -4.0310 hc        1 MOL     -0.000807
    103 H44         2.9760    1.6450   -3.1430 hc        1 MOL      0.044767
    104 H45         1.9270    0.2440   -3.3980 hc        1 MOL      0.044767
    105 H46         2.5250    1.3270   -4.8030 hc        1 MOL      0.044767
    106 H47        -0.6130    0.4970   -3.9640 hc        1 MOL      0.044767
    107 H48        -1.0840    1.9880   -4.7740 hc        1 MOL      0.044767
    108 H49         0.2250    0.9730   -5.3870 hc        1 MOL      0.044767
    109 N10         1.9620    1.8090   -0.3930 n         1 MOL     -0.415693
    110 C35         3.0460    2.0610    0.6070 c3        1 MOL      0.112107
    111 C36         4.3280    1.6510    0.0600 c         1 MOL      0.386834
    112 O17         4.3080    0.7340   -0.7370 o         1 MOL     -0.293330
    113 C37         2.6310    1.4640    1.9860 c3        1 MOL     -0.275700
    114 C38         3.8560    1.2640    2.8840 c         1 MOL      0.580275
    115 N11         4.3590    2.3730    3.4550 n         1 MOL     -0.727071
    116 O18         4.4370    0.1800    2.9960 o         1 MOL     -0.456398
    117 H50         1.3920    0.9830   -0.3120 hn        1 MOL      0.297165
    118 H51         3.1000    3.1410    0.7710 h1        1 MOL      0.053811
    119 H52         2.1760    0.4840    1.8510 hc        1 MOL      0.122777
    120 H53         1.9420    2.1340    2.4920 hc        1 MOL      0.122777
    121 H54         3.8260    3.2210    3.5270 hn        1 MOL      0.346787
    122 H55         5.1420    2.2320    4.0810 hn        1 MOL      0.346787
    123 N12         5.5370    2.1590    0.3920 n         1 MOL     -0.464495
    124 C39         6.8000    1.7100   -0.1940 c3        1 MOL      0.196682
    125 C40         7.0510    0.1830    0.0070 c         1 MOL      0.698896
    126 O19         7.4240   -0.5190   -0.9750 o         1 MOL     -0.596119
    127 C41         7.9760    2.5410    0.3960 c3        1 MOL     -0.099401
    128 C42         9.2910    2.0640   -0.1920 ca        1 MOL      0.116589
    129 C43         9.6400    2.4670   -1.4850 ca        1 MOL     -0.356078
    130 C44        10.1140    1.1190    0.4790 ca        1 MOL     -0.356078
    131 C45        10.7690    1.8900   -2.1300 ca        1 MOL     -0.010238
    132 C46        11.2510    0.5470   -0.1680 ca        1 MOL     -0.010238
    133 C47        11.5680    0.9940   -1.4210 ca        1 MOL      0.117845
    134 O20        12.6210    0.4370   -2.0900 oh        1 MOL     -0.490739
    135 H56         5.5700    2.9630    1.0070 hn        1 MOL      0.230865
    136 H57         6.7710    1.9020   -1.2730 h1        1 MOL      0.017720
    137 H58         7.9850    2.3840    1.4810 hc        1 MOL      0.043453
    138 H59         7.8920    3.6040    0.1980 hc        1 MOL      0.043453
    139 H60         9.0030    3.2140   -1.9380 ha        1 MOL      0.175056
    140 H61         9.9340    0.8040    1.4940 ha        1 MOL      0.175056
    141 H62        10.9810    2.2110   -3.1420 ha        1 MOL      0.097651
    142 H63        11.8920   -0.0910    0.4130 ha        1 MOL      0.097651
    143 H64        13.1460   -0.0780   -1.4690 ho        1 MOL      0.366564
    144 N13         6.6250   -0.4190    1.1120 n         1 MOL     -0.463655
    145 C48         6.6550   -1.8550    1.2520 c3        1 MOL      0.048624
    146 C49         5.5960   -2.6220    0.4150 c         1 MOL      0.228356
    147 O21         5.7390   -3.8170    0.2250 o         1 MOL     -0.486771
    148 C50         6.5740   -2.2430    2.6930 c3        1 MOL      0.070622
    149 C51         7.3650   -1.4010    3.7530 c3        1 MOL     -0.387420
    150 C52         7.1350   -1.8540    5.2020 c         1 MOL      0.774992
    151 O22         8.0360   -2.3970    5.8350 o         1 MOL     -0.739897
    152 O23         6.0610   -1.6700    5.7960 o         1 MOL     -0.739897
    153 H65         6.2390    0.1540    1.8460 hn        1 MOL      0.244261
    154 H66         7.6420   -2.1680    0.9150 h1        1 MOL      0.100347
    155 H67         7.1170   -3.1880    2.6140 hc        1 MOL      0.031653
    156 H68         5.5470   -2.3710    3.0170 hc        1 MOL      0.031653
    157 H69         7.0440   -0.3670    3.5940 hc        1 MOL      0.046872
    158 H70         8.3720   -1.2970    3.3710 hc        1 MOL      0.046872
    159 N14         4.4810   -1.9440    0.0390 n         1 MOL      0.106932
    160 C53         3.5680   -2.5010   -0.9200 c3        1 MOL     -0.202177
    161 C54         4.0930   -2.4350   -2.3790 c         1 MOL      0.547744
    162 O24         3.7920   -3.3040   -3.1850 o         1 MOL     -0.574678
    163 C55         2.1750   -1.8100   -0.9500 c3        1 MOL      0.382212
    164 C56         1.3080   -2.0330    0.1950 c3        1 MOL     -0.268965
    165 C57        -0.0190   -1.3300    0.1100 c         1 MOL      0.930665
    166 O25        -1.1510   -1.8410    0.3250 o         1 MOL     -0.837810
    167 O26        -0.0410   -0.0930    0.1230 o         1 MOL     -0.837810
    168 H71         4.3640   -0.9810    0.3050 hn        1 MOL     -0.095970
    169 H72         3.3180   -3.5530   -0.7540 h1        1 MOL      0.097541
    170 H73         1.6520   -2.1140   -1.8470 hc        1 MOL     -0.047972
    171 H74         2.2530   -0.7300   -1.0470 hc        1 MOL     -0.047972
    172 H75         1.8150   -1.7550    1.1140 hc        1 MOL      0.059334
    173 H76         1.2290   -3.1210    0.2610 hc        1 MOL      0.059334
    174 N15         4.8080   -1.3610   -2.7240 n         1 MOL     -0.183296
    175 C58         5.2060   -1.1470   -4.1180 c3        1 MOL     -0.186373
    176 H77         4.3750   -0.7080   -4.6690 h1        1 MOL      0.072416
    177 H78         6.0620   -0.4710   -4.1520 h1        1 MOL      0.072416
    178 H79         5.4770   -2.1000   -4.5700 h1        1 MOL      0.072416
    179 H80         4.8100   -0.5060   -2.1710 hn        1 MOL      0.137147
    180 Ca1        -2.4660    0.2100    0.9480 Ca        1 MOL      1.760206
    181 O27        -1.3120    0.0800    3.5210 oh        1 MOL     -0.852482
    182 H81        -2.0550   -0.0010    4.1250 ho        1 MOL      0.410072
    183 H82        -0.6330   -0.4890    3.8930 ho        1 MOL      0.410072
    184 O28        -1.5060    2.6570    1.8960 oh        1 MOL     -0.852482
    185 H83        -1.5680    3.6130    1.9140 ho        1 MOL      0.410072
    186 H84        -1.2210    2.4150    2.7760 ho        1 MOL      0.410072
@<TRIPOS>BOND
     1    1    2 1   
     2    1    4 1   
     3    1    5 1   
     4    1    6 1   
     5    2    3 2   
     6    2    7 1   
     7    7    8 1   
     8    7   15 1   
     9    8    9 1   
    10    8   11 1   
    11    8   16 1   
    12    9   10 2   
    13    9   19 1   
    14   11   12 1   
    15   11   17 1   
    16   11   18 1   
    17   12   13 1   
    18   12   14 1   
    19   19   20 1   
    20   19   27 1   
    21   20   21 1   
    22   20   23 1   
    23   20   28 1   
    24   21   22 2   
    25   21   38 1   
    26   23   24 1   
    27   23   25 1   
    28   23   29 1   
    29   24   26 1   
    30   24   30 1   
    31   24   31 1   
    32   25   32 1   
    33   25   33 1   
    34   25   34 1   
    35   26   35 1   
    36   26   36 1   
    37   26   37 1   
    38   38   39 1   
    39   38   46 1   
    40   39   40 1   
    41   39   42 1   
    42   39   47 1   
    43   40   41 2   
    44   40   50 1   
    45   42   43 1   
    46   42   48 1   
    47   42   49 1   
    48   43   44 1   
    49   43   45 1   
    50   50   51 1   
    51   50   54 1   
    52   51   52 1   
    53   51   55 1   
    54   51   56 1   
    55   52   53 2   
    56   52   57 1   
    57   57   58 1   
    58   57   65 1   
    59   58   59 1   
    60   58   61 1   
    61   58   66 1   
    62   59   60 2   
    63   59   69 1   
    64   61   62 1   
    65   61   67 1   
    66   61   68 1   
    67   62   63 1   
    68   62   64 1   
    69   69   70 1   
    70   69   73 1   
    71   70   71 1   
    72   70   74 1   
    73   70   75 1   
    74   71   72 2   
    75   71   76 1   
    76   76   77 1   
    77   76   85 1   
    78   77   78 1   
    79   77   80 1   
    80   77   86 1   
    81   78   79 2   
    82   78   93 1   
    83   80   81 1   
    84   80   87 1   
    85   80   88 1   
    86   81   82 1   
    87   81   89 1   
    88   81   90 1   
    89   82   83 1   
    90   82   84 2   
    91   83   91 1   
    92   83   92 1   
    93   93   94 1   
    94   93  100 1   
    95   94   95 1   
    96   94   97 1   
    97   94  101 1   
    98   95   96 2   
    99   95  109 1   
   100   97   98 1   
   101   97   99 1   
   102   97  102 1   
   103   98  103 1   
   104   98  104 1   
   105   98  105 1   
   106   99  106 1   
   107   99  107 1   
   108   99  108 1   
   109  109  110 1   
   110  109  117 1   
   111  110  111 1   
   112  110  113 1   
   113  110  118 1   
   114  111  112 2   
   115  111  123 1   
   116  113  114 1   
   117  113  119 1   
   118  113  120 1   
   119  114  115 1   
   120  114  116 2   
   121  115  121 1   
   122  115  122 1   
   123  123  124 1   
   124  123  135 1   
   125  124  125 1   
   126  124  127 1   
   127  124  136 1   
   128  125  126 2   
   129  125  144 1   
   130  127  128 1   
   131  127  137 1   
   132  127  138 1   
   133  128  129 ar  
   134  128  130 ar  
   135  129  131 ar  
   136  129  139 1   
   137  130  132 ar  
   138  130  140 1   
   139  131  133 ar  
   140  131  141 1   
   141  132  133 ar  
   142  132  142 1   
   143  133  134 1   
   144  134  143 1   
   145  144  145 1   
   146  144  153 1   
   147  145  146 1   
   148  145  148 1   
   149  145  154 1   
   150  146  147 2   
   151  146  159 1   
   152  148  149 1   
   153  148  155 1   
   154  148  156 1   
   155  149  150 1   
   156  149  157 1   
   157  149  158 1   
   158  150  151 1   
   159  150  152 1   
   160  159  160 1   
   161  159  168 1   
   162  160  161 1   
   163  160  163 1   
   164  160  169 1   
   165  161  162 2   
   166  161  174 1   
   167  163  164 1   
   168  163  170 1   
   169  163  171 1   
   170  164  165 1   
   171  164  172 1   
   172  164  173 1   
   173  165  166 1   
   174  165  167 1   
   175  174  175 1   
   176  174  179 1   
   177  175  176 1   
   178  175  177 1   
   179  175  178 1   
   180  181  182 1   
   181  181  183 1   
   182  184  185 1   
   183  184  186 1   
@<TRIPOS>SUBSTRUCTURE
     1 MOL         1 TEMP              0 ****  ****    0 ROOT
