@<TRIPOS>MOLECULE
MOL
  189   185     1     0     0
SMALL
resp


@<TRIPOS>ATOM
      1 C1          0.3880   -4.4480    5.2300 c3        1 MOL     -0.357066
      2 C2          0.8350   -4.7890    3.7540 c         1 MOL      0.699321
      3 O1          0.0030   -5.1010    2.9590 o         1 MOL     -0.513569
      4 H1         -0.3070   -3.6090    5.2130 hc        1 MOL      0.077181
      5 H2         -0.1000   -5.3160    5.6720 hc        1 MOL      0.077181
      6 H3          1.2640   -4.1810    5.8220 hc        1 MOL      0.077181
      7 N1          2.1610   -4.6340    3.4540 n         1 MOL     -0.665636
      8 C3          2.6430   -4.3450    2.1460 c3        1 MOL      0.322628
      9 C4          2.5240   -5.4030    0.9270 c         1 MOL      0.464170
     10 O2          2.6370   -6.6160    1.0370 o         1 MOL     -0.568725
     11 C5          4.1730   -4.0010    2.2890 c3        1 MOL     -0.460489
     12 C6          4.7760   -3.2170    1.1160 c         1 MOL      0.781225
     13 O3          4.1230   -2.3750    0.3650 o         1 MOL     -0.645405
     14 O4          6.0000   -3.4120    0.8690 o         1 MOL     -0.645405
     15 H4          2.7910   -4.4860    4.2260 hn        1 MOL      0.331211
     16 H5          2.2200   -3.4020    1.7830 h1        1 MOL     -0.044565
     17 H6          4.6490   -4.9830    2.3740 hc        1 MOL      0.094942
     18 H7          4.3080   -3.4790    3.2350 hc        1 MOL      0.094942
     19 N2          2.2580   -4.7760   -0.1910 n         1 MOL     -0.110905
     20 C7          2.1430   -5.4340   -1.4960 c3        1 MOL     -0.110351
     21 C8          2.9600   -4.7220   -2.6230 c         1 MOL      0.332899
     22 O5          2.9670   -5.2450   -3.7510 o         1 MOL     -0.562733
     23 C9          0.7330   -5.3660   -1.9920 c3        1 MOL      0.155791
     24 C10         0.1900   -3.8860   -2.1240 c3        1 MOL      0.320318
     25 C11        -0.1270   -6.0460   -0.8860 c3        1 MOL     -0.133294
     26 C12        -0.9570   -3.8120   -3.1200 c3        1 MOL     -0.497350
     27 H8          2.2330   -3.7750   -0.0970 hn        1 MOL      0.090073
     28 H9          2.5410   -6.4420   -1.4710 h1        1 MOL      0.104853
     29 H10         0.5830   -5.9530   -2.8940 hc        1 MOL     -0.025015
     30 H11         1.0060   -3.1660   -2.2050 hc        1 MOL     -0.034720
     31 H12        -0.2330   -3.5980   -1.1600 hc        1 MOL     -0.034720
     32 H13        -1.1370   -6.1660   -1.2900 hc        1 MOL      0.014500
     33 H14         0.2480   -7.0510   -0.7290 hc        1 MOL      0.014500
     34 H15        -0.1370   -5.4830    0.0490 hc        1 MOL      0.014500
     35 H16        -0.7660   -4.4180   -4.0100 hc        1 MOL      0.103131
     36 H17        -1.9050   -4.0340   -2.6210 hc        1 MOL      0.103131
     37 H18        -1.0100   -2.8060   -3.5230 hc        1 MOL      0.103131
     38 N3          3.6560   -3.6310   -2.4020 n         1 MOL      0.041295
     39 C13         4.3960   -2.9040   -3.5050 c3        1 MOL     -0.337229
     40 C14         5.7230   -2.1580   -3.1670 c         1 MOL      0.570948
     41 O6          6.4700   -1.7250   -4.0670 o         1 MOL     -0.593221
     42 C15         3.4310   -1.9600   -4.1920 c3        1 MOL     -0.003590
     43 C16         2.4010   -1.1810   -3.4050 c         1 MOL      0.708910
     44 O7          2.4960   -1.0280   -2.1800 o         1 MOL     -0.717577
     45 O8          1.5730   -0.6090   -4.0880 o         1 MOL     -0.717577
     46 H19         3.6690   -3.3300   -1.4370 hn        1 MOL     -0.020929
     47 H20         4.7590   -3.5670   -4.2900 h1        1 MOL      0.145122
     48 H21         2.8900   -2.5240   -4.9570 hc        1 MOL      0.026350
     49 H22         3.9280   -1.2070   -4.7970 hc        1 MOL      0.026350
     50 N4          6.0180   -2.0090   -1.9230 n         1 MOL     -0.249616
     51 C17         7.2450   -1.2980   -1.5200 c3        1 MOL     -0.116643
     52 C18         7.3480    0.2190   -1.7370 c         1 MOL      0.528078
     53 O9          8.4200    0.8200   -1.4800 o         1 MOL     -0.627964
     54 H23         5.4530   -2.4730   -1.2170 hn        1 MOL      0.195091
     55 H24         8.1530   -1.7480   -1.9280 h1        1 MOL      0.080383
     56 H25         7.1620   -1.4570   -0.4490 h1        1 MOL      0.080383
     57 N5          6.3090    0.9570   -2.0900 n         1 MOL     -0.279403
     58 C19         6.2640    2.4230   -2.2690 c3        1 MOL      0.098055
     59 C20         6.4950    3.2530   -0.9870 c         1 MOL      0.467034
     60 O10         6.4670    4.4700   -1.1070 o         1 MOL     -0.523707
     61 C21         4.9350    2.8280   -2.9580 c3        1 MOL     -0.336126
     62 C22         3.7170    2.4650   -2.1940 c         1 MOL      0.882672
     63 O11         3.7390    1.5990   -1.2690 o         1 MOL     -0.710143
     64 O12         2.6510    3.0820   -2.4090 o         1 MOL     -0.710143
     65 H26         5.4220    0.5950   -2.4190 hn        1 MOL      0.177383
     66 H27         7.0470    2.8060   -2.9270 h1        1 MOL      0.066762
     67 H28         4.9170    2.2730   -3.9000 hc        1 MOL      0.094485
     68 H29         4.8790    3.8910   -3.1740 hc        1 MOL      0.094485
     69 N6          6.6530    2.6400    0.2270 n         1 MOL     -0.282700
     70 C23         6.8600    3.3790    1.4980 c3        1 MOL     -0.140502
     71 C24         5.6360    4.0640    2.1440 c         1 MOL      0.484800
     72 O13         5.6740    5.0830    2.8270 o         1 MOL     -0.575761
     73 H30         6.5530    1.6380    0.2590 hn        1 MOL      0.245829
     74 H31         7.7010    4.0680    1.4840 h1        1 MOL      0.092314
     75 H32         7.1700    2.6580    2.2490 h1        1 MOL      0.092314
     76 N7          4.4880    3.5370    1.8180 n         1 MOL     -0.306086
     77 C25         3.1300    4.0340    2.1550 c3        1 MOL      0.001154
     78 C26         2.1220    2.8970    2.5120 c         1 MOL      0.520557
     79 O14         2.3590    1.7970    1.9710 o         1 MOL     -0.496281
     80 C27         2.5380    4.8760    0.9640 c3        1 MOL      0.068739
     81 C28         3.4120    6.0460    0.4570 c3        1 MOL     -0.178060
     82 C29         2.9410    6.6740   -0.8590 c         1 MOL      0.553562
     83 N8          2.6110    5.8910   -1.8860 n         1 MOL     -0.655653
     84 O15         2.7000    7.8550   -0.8870 o         1 MOL     -0.593604
     85 H33         4.6470    2.8760    1.0690 hn        1 MOL      0.224028
     86 H34         3.1700    4.6990    3.0280 h1        1 MOL      0.062689
     87 H35         1.5980    5.2680    1.3740 hc        1 MOL      0.018936
     88 H36         2.2850    4.1350    0.2060 hc        1 MOL      0.018936
     89 H37         4.3600    5.5300    0.3160 hc        1 MOL      0.075670
     90 H38         3.5620    6.7230    1.3010 hc        1 MOL      0.075670
     91 H39         2.6410    4.8880   -2.0020 hn        1 MOL      0.309156
     92 H40         2.3920    6.4900   -2.6760 hn        1 MOL      0.309156
     93 N9          1.2110    3.0640    3.4960 n         1 MOL     -0.603429
     94 C30        -0.0690    2.3890    3.5960 c3        1 MOL      0.203582
     95 C31        -1.0830    2.9970    2.6140 c         1 MOL      0.403577
     96 O16        -1.1290    4.2460    2.4150 o         1 MOL     -0.541906
     97 C32        -0.5770    2.1350    5.0290 c3        1 MOL      0.209200
     98 C33        -1.3220    3.2850    5.6610 c3        1 MOL     -0.244798
     99 C34        -1.5210    0.9610    5.0390 c3        1 MOL     -0.244798
    100 H41         1.2740    3.9690    3.9280 hn        1 MOL      0.312102
    101 H42         0.0960    1.3680    3.2310 h1        1 MOL      0.066119
    102 H43         0.2780    1.8800    5.6650 hc        1 MOL     -0.004408
    103 H44        -1.2710    3.2570    6.7470 hc        1 MOL      0.052274
    104 H45        -0.7850    4.1900    5.4080 hc        1 MOL      0.052274
    105 H46        -2.3660    3.3210    5.3360 hc        1 MOL      0.052274
    106 H47        -0.9660    0.0910    4.6990 hc        1 MOL      0.052274
    107 H48        -1.9570    0.6840    6.0020 hc        1 MOL      0.052274
    108 H49        -2.3850    1.1080    4.3840 hc        1 MOL      0.052274
    109 N10        -1.8670    2.0630    1.9620 n         1 MOL     -0.108459
    110 C35        -2.9490    2.3810    0.9740 c3        1 MOL      0.130945
    111 C36        -4.3510    1.8820    1.4140 c         1 MOL      0.240555
    112 O17        -4.5300    1.1040    2.3490 o         1 MOL     -0.387963
    113 C37        -2.5340    1.6920   -0.3700 c3        1 MOL     -0.379975
    114 C38        -3.4910    1.9460   -1.5280 c         1 MOL      0.719916
    115 N11        -3.5560    3.1260   -1.9910 n         1 MOL     -0.743714
    116 O18        -4.2420    1.1260   -1.9550 o         1 MOL     -0.533354
    117 H50        -1.8550    1.1760    2.4460 hn        1 MOL     -0.025123
    118 H51        -3.0360    3.4490    0.8060 h1        1 MOL      0.047494
    119 H52        -2.5670    0.6200   -0.1620 hc        1 MOL      0.124903
    120 H53        -1.5270    1.8610   -0.7600 hc        1 MOL      0.124903
    121 H54        -2.8290    3.7820   -1.7230 hn        1 MOL      0.352784
    122 H55        -4.1740    3.2850   -2.7710 hn        1 MOL      0.352784
    123 N12        -5.3860    2.3310    0.7080 n         1 MOL     -0.118961
    124 C39        -6.8140    1.8840    0.7760 c3        1 MOL     -0.080272
    125 C40        -7.1000    0.4370    0.4480 c         1 MOL      0.535193
    126 O19        -7.8790   -0.1970    1.1900 o         1 MOL     -0.562620
    127 C41        -7.6810    2.8140   -0.1010 c3        1 MOL      0.014384
    128 C42        -7.3680    2.9470   -1.5800 ca        1 MOL      0.047444
    129 C43        -8.0650    2.1260   -2.5000 ca        1 MOL     -0.162215
    130 C44        -6.5740    3.9960   -2.0000 ca        1 MOL     -0.162215
    131 C45        -7.9430    2.4080   -3.9050 ca        1 MOL     -0.327739
    132 C46        -6.4640    4.2650   -3.3870 ca        1 MOL     -0.327739
    133 C47        -7.1630    3.4880   -4.3630 ca        1 MOL      0.418142
    134 O20        -7.0330    3.7060   -5.6540 oh        1 MOL     -0.549787
    135 H56        -5.1770    2.9540   -0.0590 hn        1 MOL      0.073826
    136 H57        -7.1540    2.0220    1.8070 h1        1 MOL      0.087175
    137 H58        -7.6040    3.8390    0.2820 hc        1 MOL      0.015580
    138 H59        -8.7420    2.5970    0.0490 hc        1 MOL      0.015580
    139 H60        -8.7360    1.3320   -2.2170 ha        1 MOL      0.162988
    140 H61        -6.0590    4.6990   -1.3770 ha        1 MOL      0.162988
    141 H62        -8.4110    1.7250   -4.5980 ha        1 MOL      0.153453
    142 H63        -5.8870    5.1200   -3.7100 ha        1 MOL      0.153453
    143 H64        -7.6890    3.2470   -6.1780 ho        1 MOL      0.421059
    144 N13        -6.3520   -0.1530   -0.4790 n         1 MOL     -0.435209
    145 C48        -6.2790   -1.6160   -0.7030 c3        1 MOL     -0.132848
    146 C49        -5.5690   -2.3520    0.4620 c         1 MOL      0.352053
    147 O21        -5.6530   -3.5690    0.6180 o         1 MOL     -0.500856
    148 C50        -5.6090   -1.9380   -2.0980 c3        1 MOL      0.261783
    149 C51        -6.4330   -1.6170   -3.2850 c3        1 MOL     -0.335223
    150 C52        -7.7400   -2.4810   -3.4100 c         1 MOL      0.769677
    151 O22        -8.6560   -2.3100   -2.6290 o         1 MOL     -0.745682
    152 O23        -7.7910   -3.3940   -4.2710 o         1 MOL     -0.745682
    153 H65        -5.8680    0.4380   -1.1400 hn        1 MOL      0.372903
    154 H66        -7.2890   -2.0100   -0.6730 h1        1 MOL      0.187412
    155 H67        -5.4960   -3.0290   -2.1100 hc        1 MOL     -0.025233
    156 H68        -4.6220   -1.4800   -2.1520 hc        1 MOL     -0.025233
    157 H69        -5.9520   -1.5790   -4.2620 hc        1 MOL      0.037601
    158 H70        -6.7740   -0.5820   -3.2460 hc        1 MOL      0.037601
    159 N14        -4.7010   -1.6290    1.2120 n         1 MOL     -0.097423
    160 C53        -3.9080   -2.2190    2.2930 c3        1 MOL     -0.219224
    161 C54        -4.5920   -2.0720    3.6790 c         1 MOL      0.510117
    162 O24        -4.1310   -2.7490    4.5850 o         1 MOL     -0.548657
    163 C55        -2.4950   -1.6070    2.3080 c3        1 MOL      0.048754
    164 C56        -1.6950   -2.0430    1.1200 c3        1 MOL     -0.120483
    165 C57        -0.2790   -1.5930    1.1510 c         1 MOL      0.721386
    166 O25         0.1820   -0.9810    2.1340 o         1 MOL     -0.710653
    167 O26         0.3850   -1.6800    0.0720 o         1 MOL     -0.710653
    168 H71        -4.5430   -0.6750    0.9030 hn        1 MOL      0.092908
    169 H72        -3.8820   -3.2970    2.1470 h1        1 MOL      0.147928
    170 H73        -1.9910   -2.0740    3.1530 hc        1 MOL      0.076096
    171 H74        -2.4630   -0.5280    2.4940 hc        1 MOL      0.076096
    172 H75        -2.2490   -1.6700    0.2510 hc        1 MOL      0.053615
    173 H76        -1.8470   -3.1210    1.1120 hc        1 MOL      0.053615
    174 N15        -5.5690   -1.1920    3.9860 n         1 MOL     -0.211177
    175 C58        -5.9690   -0.8060    5.2890 c3        1 MOL     -0.250273
    176 H77        -6.7050   -0.0050    5.2200 h1        1 MOL      0.093522
    177 H78        -6.4100   -1.6600    5.8020 h1        1 MOL      0.093522
    178 H79        -5.1010   -0.4550    5.8470 h1        1 MOL      0.093522
    179 H80        -5.8120   -0.5650    3.2260 hn        1 MOL      0.211285
    180 Ca1         2.5700   -0.1880    0.2460 Ca        1 MOL      1.723323
    181 O27         5.0850    0.0880    1.2180 oh        1 MOL     -0.877819
    182 H81         5.1460   -0.7930    0.8450 ho        1 MOL      0.407885
    183 H82         5.8680    0.1840    1.7560 ho        1 MOL      0.407885
    184 O28         2.5090   -1.1950    2.8130 oh        1 MOL     -0.877819
    185 H83         1.5560   -1.2300    2.8310 ho        1 MOL      0.407885
    186 H84         2.7850   -1.7050    3.5740 ho        1 MOL      0.407885
    187 O29         0.9310    1.5260   -0.7490 oh        1 MOL     -0.877819
    188 H85         1.3820    2.0850   -1.3820 ho        1 MOL      0.407885
    189 H86         0.2090    1.1420   -1.2470 ho        1 MOL      0.407885
@<TRIPOS>BOND
     1    1    2 1   
     2    1    4 1   
     3    1    5 1   
     4    1    6 1   
     5    2    3 2   
     6    2    7 1   
     7    7    8 1   
     8    7   15 1   
     9    8    9 1   
    10    8   11 1   
    11    8   16 1   
    12    9   10 2   
    13    9   19 1   
    14   11   12 1   
    15   11   17 1   
    16   11   18 1   
    17   12   13 1   
    18   12   14 1   
    19   19   20 1   
    20   19   27 1   
    21   20   21 1   
    22   20   23 1   
    23   20   28 1   
    24   21   22 2   
    25   21   38 1   
    26   23   24 1   
    27   23   25 1   
    28   23   29 1   
    29   24   26 1   
    30   24   30 1   
    31   24   31 1   
    32   25   32 1   
    33   25   33 1   
    34   25   34 1   
    35   26   35 1   
    36   26   36 1   
    37   26   37 1   
    38   38   39 1   
    39   38   46 1   
    40   39   40 1   
    41   39   42 1   
    42   39   47 1   
    43   40   41 2   
    44   40   50 1   
    45   42   43 1   
    46   42   48 1   
    47   42   49 1   
    48   43   44 1   
    49   43   45 1   
    50   50   51 1   
    51   50   54 1   
    52   51   52 1   
    53   51   55 1   
    54   51   56 1   
    55   52   53 2   
    56   52   57 1   
    57   57   58 1   
    58   57   65 1   
    59   58   59 1   
    60   58   61 1   
    61   58   66 1   
    62   59   60 2   
    63   59   69 1   
    64   61   62 1   
    65   61   67 1   
    66   61   68 1   
    67   62   63 1   
    68   62   64 1   
    69   69   70 1   
    70   69   73 1   
    71   70   71 1   
    72   70   74 1   
    73   70   75 1   
    74   71   72 2   
    75   71   76 1   
    76   76   77 1   
    77   76   85 1   
    78   77   78 1   
    79   77   80 1   
    80   77   86 1   
    81   78   79 2   
    82   78   93 1   
    83   80   81 1   
    84   80   87 1   
    85   80   88 1   
    86   81   82 1   
    87   81   89 1   
    88   81   90 1   
    89   82   83 1   
    90   82   84 2   
    91   83   91 1   
    92   83   92 1   
    93   93   94 1   
    94   93  100 1   
    95   94   95 1   
    96   94   97 1   
    97   94  101 1   
    98   95   96 2   
    99   95  109 1   
   100   97   98 1   
   101   97   99 1   
   102   97  102 1   
   103   98  103 1   
   104   98  104 1   
   105   98  105 1   
   106   99  106 1   
   107   99  107 1   
   108   99  108 1   
   109  109  110 1   
   110  109  117 1   
   111  110  111 1   
   112  110  113 1   
   113  110  118 1   
   114  111  112 2   
   115  111  123 1   
   116  113  114 1   
   117  113  119 1   
   118  113  120 1   
   119  114  115 1   
   120  114  116 2   
   121  115  121 1   
   122  115  122 1   
   123  123  124 1   
   124  123  135 1   
   125  124  125 1   
   126  124  127 1   
   127  124  136 1   
   128  125  126 2   
   129  125  144 1   
   130  127  128 1   
   131  127  137 1   
   132  127  138 1   
   133  128  129 ar  
   134  128  130 ar  
   135  129  131 ar  
   136  129  139 1   
   137  130  132 ar  
   138  130  140 1   
   139  131  133 ar  
   140  131  141 1   
   141  132  133 ar  
   142  132  142 1   
   143  133  134 1   
   144  134  143 1   
   145  144  145 1   
   146  144  153 1   
   147  145  146 1   
   148  145  148 1   
   149  145  154 1   
   150  146  147 2   
   151  146  159 1   
   152  148  149 1   
   153  148  155 1   
   154  148  156 1   
   155  149  150 1   
   156  149  157 1   
   157  149  158 1   
   158  150  151 1   
   159  150  152 1   
   160  159  160 1   
   161  159  168 1   
   162  160  161 1   
   163  160  163 1   
   164  160  169 1   
   165  161  162 2   
   166  161  174 1   
   167  163  164 1   
   168  163  170 1   
   169  163  171 1   
   170  164  165 1   
   171  164  172 1   
   172  164  173 1   
   173  165  166 1   
   174  165  167 1   
   175  174  175 1   
   176  174  179 1   
   177  175  176 1   
   178  175  177 1   
   179  175  178 1   
   180  181  182 1   
   181  181  183 1   
   182  184  185 1   
   183  184  186 1   
   184  187  188 1   
   185  187  189 1   
@<TRIPOS>SUBSTRUCTURE
     1 MOL         1 TEMP              0 ****  ****    0 ROOT
