@<TRIPOS>MOLECULE
MOL
  169   169     1     0     0
SMALL
resp


@<TRIPOS>ATOM
      1 C1          0.3180   -3.5800    6.2350 c3        1 MOL     -0.337149
      2 C2          0.5020   -3.4330    4.7340 c         1 MOL      0.723287
      3 O1         -0.2640   -3.9140    3.9250 o         1 MOL     -0.571513
      4 H1          1.2330   -3.9740    6.6760 hc        1 MOL      0.077542
      5 H2          0.0950   -2.6060    6.6720 hc        1 MOL      0.077542
      6 H3         -0.5050   -4.2660    6.4350 hc        1 MOL      0.077542
      7 N1          1.6490   -2.9070    4.3340 n         1 MOL     -0.540405
      8 C3          1.8910   -2.6010    2.9060 c3        1 MOL      0.078462
      9 C4          2.2430   -3.8980    2.1800 c         1 MOL      0.750534
     10 O2          2.7950   -4.7670    2.8360 o         1 MOL     -0.617259
     11 C5          2.9410   -1.5290    2.8720 c3        1 MOL     -0.312298
     12 C6          3.2740   -0.9640    1.4730 c         1 MOL      0.718707
     13 O3          3.3160   -1.6360    0.4050 o         1 MOL     -0.672988
     14 O4          3.5010    0.2710    1.2990 o         1 MOL     -0.672988
     15 H4          2.3210   -2.6310    5.0240 hn        1 MOL      0.289375
     16 H5          0.9380   -2.1930    2.5730 h1        1 MOL      0.081935
     17 H6          3.8490   -1.9220    3.3420 hc        1 MOL      0.079506
     18 H7          2.5710   -0.7090    3.4890 hc        1 MOL      0.079506
     19 N2          1.9410   -4.0570    0.8820 n         1 MOL     -0.630231
     20 C7          1.9050   -5.2970    0.1080 c3        1 MOL      0.218151
     21 C8          2.9180   -5.2980   -1.1140 c         1 MOL      0.376101
     22 O5          3.0900   -6.4040   -1.6910 o         1 MOL     -0.550056
     23 C9          0.4990   -5.3940   -0.5110 c3        1 MOL     -0.241676
     24 H8          1.6090   -3.2490    0.3620 hn        1 MOL      0.376725
     25 H9          2.1710   -6.1390    0.7610 h1        1 MOL      0.046385
     26 H10         0.4550   -4.6130   -1.2630 hc        1 MOL      0.065177
     27 H11         0.3750   -6.3800   -0.9680 hc        1 MOL      0.065177
     28 H12        -0.2810   -5.3320    0.2480 hc        1 MOL      0.065177
     29 N3          3.5130   -4.1080   -1.3440 n         1 MOL     -0.153381
     30 C10         4.4490   -3.8280   -2.4740 c3        1 MOL     -0.002426
     31 C11         5.7570   -3.2550   -2.0720 c         1 MOL      0.417941
     32 O6          6.7540   -3.3020   -2.7920 o         1 MOL     -0.540491
     33 C12         3.7270   -2.9400   -3.4490 c3        1 MOL      0.002356
     34 C13         3.2900   -1.5890   -2.9040 c         1 MOL      0.692043
     35 O7          2.1690   -1.1040   -3.1800 o         1 MOL     -0.724424
     36 O8          4.0750   -0.9780   -2.1220 o         1 MOL     -0.724424
     37 H13         3.2700   -3.3570   -0.7260 hn        1 MOL      0.054173
     38 H14         4.6750   -4.7910   -2.9340 h1        1 MOL      0.069111
     39 H15         2.8910   -3.4690   -3.9050 hc        1 MOL      0.001627
     40 H16         4.4070   -2.6840   -4.2680 hc        1 MOL      0.001627
     41 N4          5.7880   -2.7580   -0.8760 n         1 MOL     -0.236191
     42 C14         6.9480   -2.3040   -0.0900 c3        1 MOL     -0.096463
     43 C15         7.4150   -0.9450   -0.4980 c         1 MOL      0.450918
     44 O9          8.6550   -0.7630   -0.5490 o         1 MOL     -0.562345
     45 H17         4.8650   -2.6540   -0.4790 hn        1 MOL      0.191146
     46 H18         7.7610   -3.0210   -0.0730 h1        1 MOL      0.083395
     47 H19         6.5420   -2.2590    0.9180 h1        1 MOL      0.083395
     48 N5          6.5230    0.0250   -0.8390 n         1 MOL     -0.201240
     49 C16         7.0490    1.3770   -1.1580 c3        1 MOL     -0.075974
     50 C17         6.9790    2.4100   -0.0280 c         1 MOL      0.502398
     51 O10         7.5650    3.4770   -0.2120 o         1 MOL     -0.537097
     52 C18         6.3320    1.8090   -2.4500 c3        1 MOL      0.026951
     53 C19         4.8750    2.1730   -2.2070 c         1 MOL      0.441363
     54 N6          4.3560    2.9100   -3.1510 n         1 MOL     -0.651458
     55 O11         4.2170    1.8230   -1.2520 o         1 MOL     -0.490901
     56 H20         5.5430   -0.1750   -0.7830 hn        1 MOL      0.294981
     57 H21         8.1210    1.2950   -1.3650 h1        1 MOL      0.097717
     58 H22         6.4230    1.0180   -3.1990 hc        1 MOL      0.026720
     59 H23         6.8470    2.6810   -2.8500 hc        1 MOL      0.026720
     60 H24         4.9670    3.1510   -3.9100 hn        1 MOL      0.329330
     61 H25         3.3790    3.1730   -3.1360 hn        1 MOL      0.329330
     62 N7          6.2000    2.1190    1.0280 n         1 MOL     -0.333747
     63 C20         6.0650    2.9840    2.2480 c3        1 MOL     -0.081481
     64 C21         4.9880    4.1010    2.0000 c         1 MOL      0.440019
     65 O12         5.0510    5.2130    2.5800 o         1 MOL     -0.555394
     66 H26         5.6570    1.2570    1.0110 hn        1 MOL      0.170877
     67 H27         7.0040    3.4100    2.6050 h1        1 MOL      0.099101
     68 H28         5.6400    2.4690    3.1130 h1        1 MOL      0.099101
     69 N8          3.9240    3.7600    1.2380 n         1 MOL     -0.181769
     70 C22         2.7500    4.5750    0.9060 c3        1 MOL     -0.210372
     71 C23         1.5750    3.6220    0.8350 c         1 MOL      0.637742
     72 O13         1.6000    2.5510    0.1670 o         1 MOL     -0.665132
     73 C24         2.9370    5.1990   -0.5090 c3        1 MOL      0.348818
     74 C25         1.6590    5.8260   -0.9860 c3        1 MOL     -0.394280
     75 O14         3.7420    6.2970   -0.3220 oh        1 MOL     -0.535007
     76 H29         3.9130    2.8020    0.9190 hn        1 MOL      0.159137
     77 H30         2.6630    5.4130    1.6110 h1        1 MOL      0.156409
     78 H31         3.3860    4.4910   -1.2080 h1        1 MOL      0.044611
     79 H32         4.0710    6.3370   -1.2220 ho        1 MOL      0.339548
     80 H33         1.3670    6.6050   -0.2700 hc        1 MOL      0.098029
     81 H34         1.7770    6.3740   -1.9250 hc        1 MOL      0.098029
     82 H35         0.8800    5.0750   -1.1130 hc        1 MOL      0.098029
     83 N9          0.4820    3.9760    1.4760 n         1 MOL     -0.526383
     84 C26        -0.6900    3.0860    1.4290 c3        1 MOL      0.062796
     85 C27        -1.4840    3.2030    0.0750 c         1 MOL      0.396631
     86 O15        -1.9120    4.2770   -0.3320 o         1 MOL     -0.581050
     87 C28        -1.6540    3.3330    2.6060 c3        1 MOL      0.174201
     88 C29        -0.9280    3.3140    4.0120 c3        1 MOL      0.094999
     89 C30        -2.8590    2.4010    2.6210 c3        1 MOL     -0.138917
     90 C31        -1.5720    4.1720    5.1100 c3        1 MOL     -0.130275
     91 H36         0.4280    4.8100    2.0520 hn        1 MOL      0.328918
     92 H37        -0.3680    2.0530    1.5760 h1        1 MOL      0.039351
     93 H38        -2.0090    4.3530    2.4790 hc        1 MOL     -0.037807
     94 H39         0.0680    3.7210    3.8730 hc        1 MOL     -0.017472
     95 H40        -0.8430    2.3040    4.4090 hc        1 MOL     -0.017472
     96 H41        -3.4390    2.2950    1.7070 hc        1 MOL      0.014782
     97 H42        -2.5660    1.4030    2.9790 hc        1 MOL      0.014782
     98 H43        -3.5790    2.7750    3.3530 hc        1 MOL      0.014782
     99 H44        -0.9930    4.1040    6.0320 hc        1 MOL      0.018351
    100 H45        -1.4330    5.1980    4.7630 hc        1 MOL      0.018351
    101 H46        -2.6210    3.9000    5.2500 hc        1 MOL      0.018351
    102 N10        -1.7490    2.0820   -0.5530 n         1 MOL      0.018382
    103 C32        -2.6460    1.8790   -1.6950 c3        1 MOL      0.023978
    104 C33        -4.0330    1.3750   -1.1690 c         1 MOL      0.207125
    105 O16        -4.0270    0.6050   -0.2110 o         1 MOL     -0.190383
    106 C34        -2.0070    0.8850   -2.7070 c3        1 MOL     -0.051907
    107 C35        -0.6580    1.3790   -3.2430 c         1 MOL      0.610278
    108 O17         0.3810    1.4910   -2.5250 o         1 MOL     -0.679934
    109 O18        -0.6400    1.6040   -4.5220 o         1 MOL     -0.679934
    110 H47        -1.3230    1.2550   -0.1520 hn        1 MOL      0.014437
    111 H48        -2.8640    2.8080   -2.2180 h1        1 MOL      0.045174
    112 H49        -2.7360    0.7330   -3.5110 hc        1 MOL      0.037522
    113 H50        -1.8220   -0.1070   -2.2980 hc        1 MOL      0.037522
    114 N11        -5.1230    1.5410   -1.8930 n         1 MOL     -0.407590
    115 C36        -6.4990    1.1940   -1.3490 c3        1 MOL      0.311834
    116 C37        -6.5930   -0.3300   -0.9840 c         1 MOL      0.225068
    117 O19        -7.2710   -0.6420   -0.0180 o         1 MOL     -0.484957
    118 C38        -7.6290    1.4760   -2.3220 c3        1 MOL     -0.309079
    119 C39        -9.0050    1.6100   -1.5970 ca        1 MOL      0.127985
    120 C40        -9.4620    2.7350   -0.9070 ca        1 MOL     -0.163096
    121 C41        -9.9570    0.5710   -1.8420 ca        1 MOL     -0.163096
    122 C42       -10.7120    2.7430   -0.2380 ca        1 MOL     -0.106259
    123 C43       -11.2850    0.6590   -1.3660 ca        1 MOL     -0.106259
    124 C44       -11.6610    1.7170   -0.5100 ca        1 MOL     -0.141275
    125 H51        -5.0590    2.2030   -2.6470 hn        1 MOL      0.292172
    126 H52        -6.6520    1.7910   -0.4450 h1        1 MOL      0.042632
    127 H53        -7.7520    0.7080   -3.0790 hc        1 MOL      0.090965
    128 H54        -7.4380    2.4810   -2.7180 hc        1 MOL      0.090965
    129 H55        -8.8670    3.6210   -0.7730 ha        1 MOL      0.119430
    130 H56        -9.7370   -0.2330   -2.5310 ha        1 MOL      0.119430
    131 H57       -10.9440    3.5270    0.4580 ha        1 MOL      0.110846
    132 H58       -12.0290   -0.0870   -1.6310 ha        1 MOL      0.110846
    133 H59       -12.6070    1.8080    0.0020 ha        1 MOL      0.112507
    134 N12        -5.9780   -1.3610   -1.5810 n         1 MOL      0.027713
    135 C45        -6.0290   -2.7820   -1.1020 c3        1 MOL     -0.045500
    136 C46        -5.2300   -3.1500    0.1630 c         1 MOL      0.295230
    137 O20        -5.6620   -4.1420    0.7780 o         1 MOL     -0.516359
    138 C47        -5.6360   -3.5820   -2.3250 c3        1 MOL      0.073277
    139 C48        -5.6900   -2.6150   -3.4940 c3        1 MOL     -0.031716
    140 C49        -5.3440   -1.2660   -2.9310 c3        1 MOL      0.126056
    141 H60        -7.0890   -3.0580   -1.0800 h1        1 MOL      0.082518
    142 H61        -4.6220   -3.9380   -2.1390 hc        1 MOL     -0.002920
    143 H62        -6.2660   -4.4600   -2.4710 hc        1 MOL     -0.002920
    144 H63        -5.0630   -2.8350   -4.3580 hc        1 MOL     -0.003569
    145 H64        -6.7330   -2.5260   -3.8140 hc        1 MOL     -0.003569
    146 H65        -4.2550   -1.1910   -2.8730 h1        1 MOL     -0.013866
    147 H66        -5.7030   -0.3940   -3.4750 h1        1 MOL     -0.013866
    148 N13        -4.3910   -2.2210    0.5550 n         1 MOL      0.078938
    149 C50        -3.6130   -2.2520    1.8190 c3        1 MOL     -0.101715
    150 C51        -4.5140   -1.5030    2.8350 c         1 MOL      0.439826
    151 O21        -4.7510   -2.0410    3.9070 o         1 MOL     -0.570989
    152 C52        -2.2070   -1.6270    1.7160 c3        1 MOL     -0.023773
    153 C53        -1.5320   -2.0760    0.4270 c3        1 MOL      0.134041
    154 C54        -0.2120   -1.3430    0.0960 c         1 MOL      0.327069
    155 O22         0.5930   -1.8060   -0.7150 o         1 MOL     -0.554789
    156 O23        -0.0020   -0.1360    0.4920 o         1 MOL     -0.554789
    157 H67        -4.3610   -1.4480   -0.0840 hn        1 MOL     -0.052018
    158 H68        -3.5270   -3.3060    2.0900 h1        1 MOL      0.108335
    159 H69        -1.5660   -1.8430    2.5650 hc        1 MOL      0.011407
    160 H70        -2.2580   -0.5400    1.5990 hc        1 MOL      0.011407
    161 H71        -2.1520   -1.7800   -0.4170 hc        1 MOL     -0.011211
    162 H72        -1.3420   -3.1530    0.3740 hc        1 MOL     -0.011211
    163 N14        -5.0690   -0.3660    2.5010 n         1 MOL     -0.068272
    164 C55        -6.1440    0.2950    3.2830 c3        1 MOL     -0.060950
    165 H73        -7.0050    0.4730    2.6390 h1        1 MOL      0.046387
    166 H74        -6.4380   -0.3470    4.1120 h1        1 MOL      0.046387
    167 H75        -5.7790    1.2460    3.6710 h1        1 MOL      0.046387
    168 H76        -4.7290   -0.0070    1.6210 hn        1 MOL      0.056893
    169 Ca1         2.1060    0.4000   -0.9890 Ca        1 MOL      1.660918
@<TRIPOS>BOND
     1    1    2 1   
     2    1    4 1   
     3    1    5 1   
     4    1    6 1   
     5    2    3 2   
     6    2    7 1   
     7    7    8 1   
     8    7   15 1   
     9    8    9 1   
    10    8   11 1   
    11    8   16 1   
    12    9   10 2   
    13    9   19 1   
    14   11   12 1   
    15   11   17 1   
    16   11   18 1   
    17   12   13 1   
    18   12   14 1   
    19   19   20 1   
    20   19   24 1   
    21   20   21 1   
    22   20   23 1   
    23   20   25 1   
    24   21   22 2   
    25   21   29 1   
    26   23   26 1   
    27   23   27 1   
    28   23   28 1   
    29   29   30 1   
    30   29   37 1   
    31   30   31 1   
    32   30   33 1   
    33   30   38 1   
    34   31   32 2   
    35   31   41 1   
    36   33   34 1   
    37   33   39 1   
    38   33   40 1   
    39   34   35 1   
    40   34   36 1   
    41   41   42 1   
    42   41   45 1   
    43   42   43 1   
    44   42   46 1   
    45   42   47 1   
    46   43   44 2   
    47   43   48 1   
    48   48   49 1   
    49   48   56 1   
    50   49   50 1   
    51   49   52 1   
    52   49   57 1   
    53   50   51 2   
    54   50   62 1   
    55   52   53 1   
    56   52   58 1   
    57   52   59 1   
    58   53   54 1   
    59   53   55 2   
    60   54   60 1   
    61   54   61 1   
    62   62   63 1   
    63   62   66 1   
    64   63   64 1   
    65   63   67 1   
    66   63   68 1   
    67   64   65 2   
    68   64   69 1   
    69   69   70 1   
    70   69   76 1   
    71   70   71 1   
    72   70   73 1   
    73   70   77 1   
    74   71   72 2   
    75   71   83 1   
    76   73   74 1   
    77   73   75 1   
    78   73   78 1   
    79   74   80 1   
    80   74   81 1   
    81   74   82 1   
    82   75   79 1   
    83   83   84 1   
    84   83   91 1   
    85   84   85 1   
    86   84   87 1   
    87   84   92 1   
    88   85   86 2   
    89   85  102 1   
    90   87   88 1   
    91   87   89 1   
    92   87   93 1   
    93   88   90 1   
    94   88   94 1   
    95   88   95 1   
    96   89   96 1   
    97   89   97 1   
    98   89   98 1   
    99   90   99 1   
   100   90  100 1   
   101   90  101 1   
   102  102  103 1   
   103  102  110 1   
   104  103  104 1   
   105  103  106 1   
   106  103  111 1   
   107  104  105 2   
   108  104  114 1   
   109  106  107 1   
   110  106  112 1   
   111  106  113 1   
   112  107  108 1   
   113  107  109 1   
   114  114  115 1   
   115  114  125 1   
   116  115  116 1   
   117  115  118 1   
   118  115  126 1   
   119  116  117 2   
   120  116  134 1   
   121  118  119 1   
   122  118  127 1   
   123  118  128 1   
   124  119  120 ar  
   125  119  121 ar  
   126  120  122 ar  
   127  120  129 1   
   128  121  123 ar  
   129  121  130 1   
   130  122  124 ar  
   131  122  131 1   
   132  123  124 ar  
   133  123  132 1   
   134  124  133 1   
   135  134  135 1   
   136  134  140 1   
   137  135  136 1   
   138  135  138 1   
   139  135  141 1   
   140  136  137 2   
   141  136  148 1   
   142  138  139 1   
   143  138  142 1   
   144  138  143 1   
   145  139  140 1   
   146  139  144 1   
   147  139  145 1   
   148  140  146 1   
   149  140  147 1   
   150  148  149 1   
   151  148  157 1   
   152  149  150 1   
   153  149  152 1   
   154  149  158 1   
   155  150  151 2   
   156  150  163 1   
   157  152  153 1   
   158  152  159 1   
   159  152  160 1   
   160  153  154 1   
   161  153  161 1   
   162  153  162 1   
   163  154  155 1   
   164  154  156 1   
   165  163  164 1   
   166  163  168 1   
   167  164  165 1   
   168  164  166 1   
   169  164  167 1   
@<TRIPOS>SUBSTRUCTURE
     1 MOL         1 TEMP              0 ****  ****    0 ROOT
