@<TRIPOS>MOLECULE
MOL
  179   176     1     0     0
SMALL
resp


@<TRIPOS>ATOM
      1 C1         -0.8780   -2.9040    6.4680 c3        1 MOL     -0.300851
      2 C2         -0.8950   -2.5070    5.0100 c         1 MOL      0.814436
      3 O1         -1.9720   -2.3650    4.4440 o         1 MOL     -0.584641
      4 H1         -0.4750   -3.9130    6.5640 hc        1 MOL      0.066027
      5 H2         -0.2530   -2.2080    7.0280 hc        1 MOL      0.066027
      6 H3         -1.8940   -2.8810    6.8630 hc        1 MOL      0.066027
      7 N1          0.3380   -2.5010    4.4680 n         1 MOL     -0.636196
      8 C3          0.5580   -2.2780    3.0630 c3        1 MOL     -0.015842
      9 C4          0.0250   -3.4820    2.2390 c         1 MOL      0.489953
     10 O2          0.2200   -4.6150    2.6760 o         1 MOL     -0.561761
     11 C5          2.0920   -2.2010    2.9350 c3        1 MOL      0.044883
     12 C6          2.5690   -1.6860    1.5640 c         1 MOL      0.632104
     13 O3          1.9360   -1.9650    0.4910 o         1 MOL     -0.666800
     14 O4          3.6300   -1.0470    1.5530 o         1 MOL     -0.666800
     15 H4          1.1020   -2.8460    5.0300 hn        1 MOL      0.334623
     16 H5          0.0200   -1.3900    2.7210 h1        1 MOL      0.102788
     17 H6          2.6060   -3.1370    3.1440 hc        1 MOL      0.019564
     18 H7          2.3070   -1.4970    3.7390 hc        1 MOL      0.019564
     19 N2         -0.5240   -3.3540    1.0610 n         1 MOL     -0.192737
     20 C7         -1.0860   -4.5340    0.2880 c3        1 MOL     -0.218844
     21 C8         -0.1030   -5.3820   -0.3710 c         1 MOL      0.528821
     22 O5         -0.3760   -6.4860   -0.7120 o         1 MOL     -0.547874
     23 C9         -2.2550   -4.1300   -0.6470 c3        1 MOL      0.123147
     24 C10        -3.3070   -5.2430   -0.8620 c3        1 MOL     -0.157127
     25 C11        -4.4930   -4.5520   -1.6150 c3        1 MOL      0.054882
     26 C12        -5.3330   -5.7510   -1.9990 c3        1 MOL      0.098433
     27 N3         -6.4980   -5.4400   -2.7970 n4        1 MOL     -0.489200
     28 H8         -0.8150   -2.4070    0.8230 hn        1 MOL      0.119736
     29 H9         -1.5630   -5.1150    1.0730 h1        1 MOL      0.148144
     30 H10        -1.8490   -3.8070   -1.6100 hc        1 MOL      0.047503
     31 H11        -2.7160   -3.2400   -0.2210 hc        1 MOL      0.047503
     32 H12        -3.7190   -5.6940    0.0330 hc        1 MOL      0.050533
     33 H13        -2.8900   -6.0430   -1.4800 hc        1 MOL      0.050533
     34 H14        -4.0670   -4.0000   -2.4390 hc        1 MOL      0.034052
     35 H15        -5.0030   -3.8850   -0.9190 hc        1 MOL      0.034052
     36 H16        -5.6050   -6.3410   -1.1180 hx        1 MOL      0.061941
     37 H17        -4.6800   -6.3600   -2.6240 hx        1 MOL      0.061941
     38 H18        -7.2380   -4.9410   -2.3240 hn        1 MOL      0.357226
     39 H19        -6.1310   -5.1490   -3.6960 hn        1 MOL      0.357226
     40 H20        -6.9060   -6.3050   -3.1180 hn        1 MOL      0.357226
     41 N4          1.1470   -4.8940   -0.4910 n         1 MOL     -0.244649
     42 C13         2.3210   -5.5280   -1.1390 c3        1 MOL      0.087098
     43 C14         3.5620   -5.4080   -0.2850 c         1 MOL      0.385900
     44 O6          4.3630   -6.3180   -0.1980 o         1 MOL     -0.537411
     45 C15         2.4960   -4.9230   -2.5610 c3        1 MOL     -0.203192
     46 C16         2.3310   -3.3940   -2.5810 c         1 MOL      0.678114
     47 O7          3.2180   -2.6060   -2.1820 o         1 MOL     -0.734102
     48 O8          1.2140   -2.8980   -2.8490 o         1 MOL     -0.734102
     49 H21         1.3450   -3.9610   -0.1570 hn        1 MOL      0.198609
     50 H22         2.0220   -6.5760   -1.2100 h1        1 MOL      0.074024
     51 H23         1.8160   -5.3520   -3.2960 hc        1 MOL      0.057546
     52 H24         3.4700   -5.2880   -2.8790 hc        1 MOL      0.057546
     53 N5          3.8610   -4.2800    0.3430 n         1 MOL     -0.028370
     54 C17         5.1350   -3.9100    0.9540 c3        1 MOL      0.057047
     55 C18         6.0650   -3.0100    0.1290 c         1 MOL      0.517058
     56 O9          7.2930   -3.2970    0.2390 o         1 MOL     -0.597242
     57 H25         3.1460   -3.5630    0.3850 hn        1 MOL     -0.048477
     58 H26         5.6930   -4.7930    1.2590 h1        1 MOL      0.025940
     59 H27         4.8650   -3.3230    1.8390 h1        1 MOL      0.025940
     60 N6          5.6080   -2.0400   -0.6230 n         1 MOL     -0.072392
     61 C19         6.4990   -1.0890   -1.2760 c3        1 MOL     -0.217094
     62 C20         6.7140    0.0710   -0.3080 c         1 MOL      0.383092
     63 O10         7.4820    0.9910   -0.5940 o         1 MOL     -0.491917
     64 C21         5.8700   -0.7550   -2.6430 c3        1 MOL     -0.066522
     65 C22         4.8110    0.3270   -2.5030 c         1 MOL      0.553600
     66 N7          4.7700    1.3720   -3.2560 n         1 MOL     -0.770375
     67 O11         3.8870    0.2490   -1.7080 o         1 MOL     -0.448131
     68 H28         4.6030   -1.9440   -0.6250 hn        1 MOL     -0.010484
     69 H29         7.4700   -1.5320   -1.5150 h1        1 MOL      0.173108
     70 H30         5.4990   -1.6430   -3.1500 hc        1 MOL      0.078987
     71 H31         6.6340   -0.4030   -3.3380 hc        1 MOL      0.078987
     72 H32         5.5670    1.7660   -3.7480 hn        1 MOL      0.377411
     73 H33         3.9550    1.9280   -3.0620 hn        1 MOL      0.377411
     74 N8          6.0560    0.1540    0.8590 n         1 MOL     -0.131122
     75 C23         6.1440    1.2520    1.8120 c3        1 MOL     -0.453130
     76 C24         5.1550    2.4250    1.6130 c         1 MOL      0.553190
     77 O12         5.3620    3.4080    2.3670 o         1 MOL     -0.573272
     78 H34         5.3480   -0.5190    1.1280 hn        1 MOL      0.250791
     79 H35         7.1690    1.6070    1.7040 h1        1 MOL      0.184919
     80 H36         5.9110    0.8810    2.8090 h1        1 MOL      0.184919
     81 N9          4.2490    2.4090    0.7310 n         1 MOL     -0.038067
     82 C25         3.1240    3.3150    0.6500 c3        1 MOL      0.063906
     83 C26         1.7420    2.6430    0.5590 c         1 MOL      0.538375
     84 O13         1.5700    1.6340   -0.1120 o         1 MOL     -0.677748
     85 C27         3.3990    4.1930   -0.6330 c3        1 MOL      0.182462
     86 C28         4.6620    5.0580   -0.6170 ca        1 MOL      0.045882
     87 C29         5.9240    4.5360   -0.7940 ca        1 MOL     -0.308756
     88 C30         4.4660    6.4820   -0.4730 ca        1 MOL     -0.308756
     89 C31         7.0360    5.3670   -0.7930 ca        1 MOL     -0.034996
     90 C32         5.5730    7.2780   -0.4220 ca        1 MOL     -0.034996
     91 C33         6.8610    6.7370   -0.5870 ca        1 MOL      0.175021
     92 O14         7.8710    7.5950   -0.4360 oh        1 MOL     -0.439655
     93 H37         4.2210    1.5520    0.1910 hn        1 MOL      0.090165
     94 H38         3.1520    3.9070    1.5720 h1        1 MOL      0.018727
     95 H39         2.5220    4.8300   -0.6750 hc        1 MOL     -0.058279
     96 H40         3.3400    3.5340   -1.4990 hc        1 MOL     -0.058279
     97 H41         5.9600    3.5050   -1.1410 ha        1 MOL      0.145426
     98 H42         3.5220    6.9580   -0.2380 ha        1 MOL      0.145426
     99 H43         8.0100    4.9830   -1.0560 ha        1 MOL      0.092646
    100 H44         5.4920    8.3500   -0.4130 ha        1 MOL      0.092646
    101 H45         7.6530    8.4890   -0.7370 ho        1 MOL      0.336801
    102 N10         0.7430    3.2500    1.2030 n         1 MOL     -0.486296
    103 C34        -0.5650    2.7030    1.4150 c3        1 MOL      0.012360
    104 C35        -1.5740    3.5910    0.7280 c         1 MOL      0.663232
    105 O15        -1.5720    4.7780    0.9700 o         1 MOL     -0.581814
    106 C36        -0.8440    2.5510    2.9510 c3        1 MOL      0.212143
    107 C37         0.3110    1.7260    3.5800 c3        1 MOL      0.306339
    108 C38        -2.1730    1.8600    3.2540 c3        1 MOL     -0.439835
    109 C39         0.2970    1.2360    5.0500 c3        1 MOL     -0.300020
    110 H46         1.0380    3.9630    1.8500 hn        1 MOL      0.294694
    111 H47        -0.6480    1.7250    0.9430 h1        1 MOL      0.081137
    112 H48        -0.8770    3.4990    3.4920 hc        1 MOL     -0.017852
    113 H49         1.1880    2.3480    3.4150 hc        1 MOL     -0.091394
    114 H50         0.5300    0.8750    2.9340 hc        1 MOL     -0.091394
    115 H51        -2.9540    2.5760    2.9990 hc        1 MOL      0.100733
    116 H52        -2.2480    0.8910    2.7630 hc        1 MOL      0.100733
    117 H53        -2.3750    1.7150    4.3120 hc        1 MOL      0.100733
    118 H54         1.3570    1.0060    5.2130 hc        1 MOL      0.062636
    119 H55         0.0680    2.0690    5.7030 hc        1 MOL      0.062636
    120 H56        -0.3670    0.3790    5.1650 hc        1 MOL      0.062636
    121 N11        -2.5030    3.0300   -0.0570 n         1 MOL     -0.528415
    122 C40        -3.4830    3.9790   -0.6700 c3        1 MOL      0.128486
    123 C41        -4.8490    3.8760    0.0130 c         1 MOL      0.482593
    124 O16        -5.0610    3.1610    0.9600 o         1 MOL     -0.384560
    125 C42        -3.5440    3.6740   -2.1360 c3        1 MOL     -0.065473
    126 O17        -4.5410    2.7000   -2.4740 oh        1 MOL     -0.525797
    127 H57        -2.5030    2.0360   -0.2480 hn        1 MOL      0.284029
    128 H58        -3.2230    5.0370   -0.6850 h1        1 MOL      0.089239
    129 H59        -2.5910    3.4390   -2.6280 h1        1 MOL      0.086039
    130 H60        -3.7860    4.6110   -2.6490 h1        1 MOL      0.086039
    131 H61        -4.3940    2.2540   -3.3120 ho        1 MOL      0.414128
    132 N12        -5.8350    4.6740   -0.4690 n         1 MOL     -0.524660
    133 C43        -7.2380    4.6370   -0.0340 c3        1 MOL      0.263388
    134 C44        -7.8070    3.2360   -0.3010 c         1 MOL      0.364221
    135 O18        -8.5580    2.6850    0.5050 o         1 MOL     -0.521529
    136 C45        -8.0590    5.6960   -0.7570 c3        1 MOL     -0.369452
    137 H62        -5.6630    5.2800   -1.2570 hn        1 MOL      0.298925
    138 H63        -7.3190    4.7480    1.0420 h1        1 MOL      0.067619
    139 H64        -7.6610    6.6630   -0.4290 hc        1 MOL      0.107981
    140 H65        -7.9590    5.6060   -1.8370 hc        1 MOL      0.107981
    141 H66        -9.1260    5.5640   -0.5870 hc        1 MOL      0.107981
    142 N13        -7.3690    2.5530   -1.3570 n         1 MOL     -0.206095
    143 C46        -7.8950    1.2380   -1.7930 c3        1 MOL      0.104013
    144 C47        -7.1250    0.0860   -1.1670 c         1 MOL      0.327393
    145 O19        -7.6670   -1.0010   -1.0780 o         1 MOL     -0.507378
    146 C48        -7.9450    1.1850   -3.2610 c3        1 MOL     -0.170028
    147 H67        -6.7030    3.0130   -1.9620 hn        1 MOL      0.154363
    148 H68        -8.9290    1.0890   -1.5010 h1        1 MOL      0.101378
    149 H69        -8.5100    2.0210   -3.6660 hc        1 MOL      0.044079
    150 H70        -6.9780    1.2560   -3.7560 hc        1 MOL      0.044079
    151 H71        -8.4210    0.2340   -3.4930 hc        1 MOL      0.044079
    152 N14        -5.9050    0.3000   -0.7690 n         1 MOL      0.044241
    153 C49        -5.2030   -0.6510    0.0560 c3        1 MOL     -0.355885
    154 C50        -5.6500   -0.6560    1.4440 c         1 MOL      0.631999
    155 O20        -5.8840   -1.7040    2.0600 o         1 MOL     -0.536029
    156 C51        -3.6610   -0.5210   -0.1190 c3        1 MOL      0.071864
    157 C52        -3.1490   -0.5790   -1.5510 c3        1 MOL      0.016486
    158 C53        -1.5960   -0.7040   -1.5550 c         1 MOL      0.532365
    159 O21        -0.9800   -0.6530   -2.6390 o         1 MOL     -0.669823
    160 O22        -0.9000   -0.9330   -0.5290 o         1 MOL     -0.669823
    161 H72        -5.4920    1.2070   -0.9130 hn        1 MOL     -0.003976
    162 H73        -5.4430   -1.6710   -0.2320 h1        1 MOL      0.086259
    163 H74        -3.2040   -1.3230    0.4590 hc        1 MOL      0.019504
    164 H75        -3.3120    0.4340    0.2790 hc        1 MOL      0.019504
    165 H76        -3.4830    0.2480   -2.1860 hc        1 MOL     -0.023650
    166 H77        -3.5370   -1.4250   -2.1190 hc        1 MOL     -0.023650
    167 N15        -5.9580    0.5390    2.0670 n         1 MOL     -0.206049
    168 C54        -6.5000    0.6090    3.4190 c3        1 MOL     -0.293269
    169 H78        -5.9510   -0.0740    4.0660 h1        1 MOL      0.119162
    170 H79        -6.4020    1.6260    3.7980 h1        1 MOL      0.119162
    171 H80        -7.5530    0.3270    3.4030 h1        1 MOL      0.119162
    172 H81        -5.8200    1.4190    1.5790 hn        1 MOL      0.176008
    173 Ca1         1.5100   -0.6260   -1.6210 Ca        1 MOL      1.777238
    174 O23         2.1500   -0.7540   -4.4980 oh        1 MOL     -0.824015
    175 H82         1.4110   -1.1040   -5.0040 ho        1 MOL      0.405938
    176 H83         2.9320   -1.1140   -4.9310 ho        1 MOL      0.405938
    177 O24         0.9070    1.7510   -2.9930 oh        1 MOL     -0.824015
    178 H84         0.1620    1.6270   -3.5790 ho        1 MOL      0.405938
    179 H85         0.7310    2.5810   -2.5460 ho        1 MOL      0.405938
@<TRIPOS>BOND
     1    1    2 1   
     2    1    4 1   
     3    1    5 1   
     4    1    6 1   
     5    2    3 2   
     6    2    7 1   
     7    7    8 1   
     8    7   15 1   
     9    8    9 1   
    10    8   11 1   
    11    8   16 1   
    12    9   10 2   
    13    9   19 1   
    14   11   12 1   
    15   11   17 1   
    16   11   18 1   
    17   12   13 1   
    18   12   14 1   
    19   19   20 1   
    20   19   28 1   
    21   20   21 1   
    22   20   23 1   
    23   20   29 1   
    24   21   22 2   
    25   21   41 1   
    26   23   24 1   
    27   23   30 1   
    28   23   31 1   
    29   24   25 1   
    30   24   32 1   
    31   24   33 1   
    32   25   26 1   
    33   25   34 1   
    34   25   35 1   
    35   26   27 1   
    36   26   36 1   
    37   26   37 1   
    38   27   38 1   
    39   27   39 1   
    40   27   40 1   
    41   41   42 1   
    42   41   49 1   
    43   42   43 1   
    44   42   45 1   
    45   42   50 1   
    46   43   44 2   
    47   43   53 1   
    48   45   46 1   
    49   45   51 1   
    50   45   52 1   
    51   46   47 1   
    52   46   48 1   
    53   53   54 1   
    54   53   57 1   
    55   54   55 1   
    56   54   58 1   
    57   54   59 1   
    58   55   56 2   
    59   55   60 1   
    60   60   61 1   
    61   60   68 1   
    62   61   62 1   
    63   61   64 1   
    64   61   69 1   
    65   62   63 2   
    66   62   74 1   
    67   64   65 1   
    68   64   70 1   
    69   64   71 1   
    70   65   66 1   
    71   65   67 2   
    72   66   72 1   
    73   66   73 1   
    74   74   75 1   
    75   74   78 1   
    76   75   76 1   
    77   75   79 1   
    78   75   80 1   
    79   76   77 2   
    80   76   81 1   
    81   81   82 1   
    82   81   93 1   
    83   82   83 1   
    84   82   85 1   
    85   82   94 1   
    86   83   84 2   
    87   83  102 1   
    88   85   86 1   
    89   85   95 1   
    90   85   96 1   
    91   86   87 ar  
    92   86   88 ar  
    93   87   89 ar  
    94   87   97 1   
    95   88   90 ar  
    96   88   98 1   
    97   89   91 ar  
    98   89   99 1   
    99   90   91 ar  
   100   90  100 1   
   101   91   92 1   
   102   92  101 1   
   103  102  103 1   
   104  102  110 1   
   105  103  104 1   
   106  103  106 1   
   107  103  111 1   
   108  104  105 2   
   109  104  121 1   
   110  106  107 1   
   111  106  108 1   
   112  106  112 1   
   113  107  109 1   
   114  107  113 1   
   115  107  114 1   
   116  108  115 1   
   117  108  116 1   
   118  108  117 1   
   119  109  118 1   
   120  109  119 1   
   121  109  120 1   
   122  121  122 1   
   123  121  127 1   
   124  122  123 1   
   125  122  125 1   
   126  122  128 1   
   127  123  124 2   
   128  123  132 1   
   129  125  126 1   
   130  125  129 1   
   131  125  130 1   
   132  126  131 1   
   133  132  133 1   
   134  132  137 1   
   135  133  134 1   
   136  133  136 1   
   137  133  138 1   
   138  134  135 2   
   139  134  142 1   
   140  136  139 1   
   141  136  140 1   
   142  136  141 1   
   143  142  143 1   
   144  142  147 1   
   145  143  144 1   
   146  143  146 1   
   147  143  148 1   
   148  144  145 2   
   149  144  152 1   
   150  146  149 1   
   151  146  150 1   
   152  146  151 1   
   153  152  153 1   
   154  152  161 1   
   155  153  154 1   
   156  153  156 1   
   157  153  162 1   
   158  154  155 2   
   159  154  167 1   
   160  156  157 1   
   161  156  163 1   
   162  156  164 1   
   163  157  158 1   
   164  157  165 1   
   165  157  166 1   
   166  158  159 1   
   167  158  160 1   
   168  167  168 1   
   169  167  172 1   
   170  168  169 1   
   171  168  170 1   
   172  168  171 1   
   173  174  175 1   
   174  174  176 1   
   175  177  178 1   
   176  177  179 1   
@<TRIPOS>SUBSTRUCTURE
     1 MOL         1 TEMP              0 ****  ****    0 ROOT
