@<TRIPOS>MOLECULE
MOL
  172   171     1     0     0
SMALL
resp


@<TRIPOS>ATOM
      1 C1          0.6090    3.6350    5.5330 c3        1 MOL     -0.494168
      2 C2          0.0600    3.6460    4.0930 c         1 MOL      0.714776
      3 O1          0.7750    4.0220    3.1660 o         1 MOL     -0.554002
      4 H1          1.2050    2.7350    5.6870 hc        1 MOL      0.119505
      5 H2          1.2320    4.5150    5.6920 hc        1 MOL      0.119505
      6 H3         -0.2210    3.6440    6.2400 hc        1 MOL      0.119505
      7 N1         -1.2060    3.3350    4.0000 n         1 MOL     -0.554101
      8 C3         -1.9510    3.2450    2.7490 c3        1 MOL      0.145088
      9 C4         -1.9400    4.5870    1.9890 c         1 MOL      0.532994
     10 O2         -1.9850    5.6960    2.5270 o         1 MOL     -0.564081
     11 C5         -3.2990    2.7860    3.0140 c3        1 MOL     -0.319825
     12 C6         -4.0720    2.5850    1.7220 c         1 MOL      0.747266
     13 O3         -5.2490    2.8810    1.6560 o         1 MOL     -0.661080
     14 O4         -3.5900    2.0100    0.7280 o         1 MOL     -0.661080
     15 H4         -1.7450    3.2190    4.8440 hn        1 MOL      0.312894
     16 H5         -1.4670    2.4770    2.1490 h1        1 MOL      0.111620
     17 H6         -3.8620    3.4750    3.6540 hc        1 MOL      0.052375
     18 H7         -3.1730    1.7720    3.3770 hc        1 MOL      0.052375
     19 N2         -1.9140    4.4460    0.6590 n         1 MOL     -0.453533
     20 C7         -2.2760    5.4660   -0.3670 c3        1 MOL      0.321032
     21 C8         -3.3600    5.1360   -1.3630 c         1 MOL      0.361292
     22 O5         -3.8460    6.0730   -2.0460 o         1 MOL     -0.569371
     23 C9         -0.9060    5.8170   -1.0810 c3        1 MOL     -0.245310
     24 H8         -1.6260    3.5280    0.3390 hn        1 MOL      0.305915
     25 H9         -2.5730    6.3560    0.1900 h1        1 MOL      0.014791
     26 H10        -0.2030    6.1860   -0.3500 hc        1 MOL      0.054961
     27 H11        -0.4070    4.9690   -1.5360 hc        1 MOL      0.054961
     28 H12        -1.2070    6.6040   -1.7750 hc        1 MOL      0.054961
     29 N3         -3.8130    3.8760   -1.5570 n         1 MOL     -0.122584
     30 C10        -4.6870    3.4870   -2.6490 c3        1 MOL      0.017632
     31 C11        -5.9850    2.6950   -2.2700 c         1 MOL      0.418510
     32 O6         -6.8710    2.5950   -3.0950 o         1 MOL     -0.560846
     33 C12        -3.8320    2.7680   -3.6560 c3        1 MOL     -0.077554
     34 C13        -3.1410    1.4690   -3.0940 c         1 MOL      0.724324
     35 O7         -2.0340    1.2590   -3.6400 o         1 MOL     -0.707576
     36 O8         -3.6860    0.7980   -2.2180 o         1 MOL     -0.707576
     37 H13        -3.4910    3.1690   -0.9070 hn        1 MOL      0.012171
     38 H14        -5.0040    4.4040   -3.1380 h1        1 MOL      0.076038
     39 H15        -3.0590    3.4760   -3.9780 hc        1 MOL      0.012911
     40 H16        -4.4060    2.4200   -4.5110 hc        1 MOL      0.012911
     41 N4         -6.2000    2.1980   -1.0390 n         1 MOL     -0.176610
     42 C14        -7.4070    1.5360   -0.5790 c3        1 MOL     -0.072707
     43 C15        -7.4760   -0.0050   -0.7450 c         1 MOL      0.388219
     44 O9         -8.5210   -0.6710   -0.6210 o         1 MOL     -0.597427
     45 H17        -5.5880    2.4250   -0.2730 hn        1 MOL      0.141170
     46 H18        -8.3110    1.8490   -1.0950 h1        1 MOL      0.088809
     47 H19        -7.6680    1.8090    0.4480 h1        1 MOL      0.088809
     48 N5         -6.4270   -0.6510   -1.3390 n         1 MOL     -0.109893
     49 C16        -6.4350   -2.0030   -1.9530 c3        1 MOL      0.000667
     50 C17        -6.2270   -3.1330   -0.9550 c         1 MOL      0.451221
     51 O10        -6.1730   -4.3070   -1.3600 o         1 MOL     -0.516936
     52 C18        -5.3370   -2.0610   -3.0260 c3        1 MOL     -0.260569
     53 C19        -3.9230   -2.1620   -2.4490 c         1 MOL      0.616540
     54 N6         -2.9820   -2.3200   -3.3680 n         1 MOL     -0.620377
     55 O11        -3.6570   -2.0450   -1.2280 o         1 MOL     -0.667337
     56 H20        -5.6630   -0.0030   -1.4960 hn        1 MOL      0.155203
     57 H21        -7.4350   -2.2140   -2.3220 h1        1 MOL      0.114566
     58 H22        -5.3200   -1.1540   -3.6280 hc        1 MOL      0.086571
     59 H23        -5.5440   -2.9210   -3.6640 hc        1 MOL      0.086571
     60 H24        -3.2470   -2.3240   -4.3480 hn        1 MOL      0.334169
     61 H25        -1.9870   -2.3950   -3.1860 hn        1 MOL      0.334169
     62 N7         -6.2860   -2.8570    0.3610 n         1 MOL     -0.240750
     63 C20        -6.3230   -3.7760    1.5280 c3        1 MOL     -0.317513
     64 C21        -4.9510   -4.3790    1.9680 c         1 MOL      0.591521
     65 O12        -4.8730   -5.0960    2.9440 o         1 MOL     -0.577300
     66 H26        -6.2930   -1.8790    0.5980 hn        1 MOL      0.253150
     67 H27        -7.1160   -4.5120    1.3870 h1        1 MOL      0.138100
     68 H28        -6.5460   -3.1820    2.4160 h1        1 MOL      0.138100
     69 N8         -3.8200   -4.0140    1.2890 n         1 MOL     -0.275217
     70 C22        -2.5510   -4.5640    1.4440 c3        1 MOL     -0.097573
     71 C23        -1.4810   -3.4450    1.5560 c         1 MOL      0.480910
     72 O13        -1.7690   -2.2960    1.0910 o         1 MOL     -0.515375
     73 C24        -2.2040   -5.4430    0.2210 c3        1 MOL      0.408954
     74 C25        -2.8830   -6.7620    0.2020 c3        1 MOL     -0.542135
     75 O14        -2.6040   -4.9060   -1.0210 oh        1 MOL     -0.543475
     76 H29        -3.9550   -3.3520    0.5410 hn        1 MOL      0.229613
     77 H30        -2.4720   -5.1570    2.3570 h1        1 MOL      0.098502
     78 H31        -1.1450   -5.6800    0.1350 h1        1 MOL      0.007910
     79 H32        -2.4970   -3.9580   -1.0120 ho        1 MOL      0.343848
     80 H33        -3.9510   -6.7000    0.0070 hc        1 MOL      0.134827
     81 H34        -2.4820   -7.3240   -0.6350 hc        1 MOL      0.134827
     82 H35        -2.7100   -7.2250    1.1800 hc        1 MOL      0.134827
     83 N9         -0.3660   -3.6970    2.1950 n         1 MOL     -0.541319
     84 C26         0.9240   -2.9130    2.0790 c3        1 MOL     -0.005226
     85 C27         1.5220   -3.2110    0.6870 c         1 MOL      0.491510
     86 O15         1.6930   -4.4040    0.3660 o         1 MOL     -0.587633
     87 C28         1.8050   -3.1720    3.3460 c3        1 MOL      0.099052
     88 C29         1.0660   -2.3790    4.3890 c3        1 MOL      0.238313
     89 C30         3.2700   -2.7280    3.0700 c3        1 MOL     -0.440222
     90 C31         1.6720   -2.3970    5.8100 c3        1 MOL     -0.229820
     91 H36        -0.3430   -4.5120    2.7910 hn        1 MOL      0.308436
     92 H37         0.6660   -1.8560    2.0720 h1        1 MOL      0.081710
     93 H38         1.6140   -4.2070    3.6220 hc        1 MOL      0.008586
     94 H39         0.0710   -2.8160    4.4890 hc        1 MOL     -0.046925
     95 H40         0.9520   -1.3210    4.1260 hc        1 MOL     -0.046925
     96 H41         3.2950   -1.6830    2.7720 hc        1 MOL      0.108098
     97 H42         3.9410   -2.7830    3.9250 hc        1 MOL      0.108098
     98 H43         3.6080   -3.3540    2.2360 hc        1 MOL      0.108098
     99 H44         2.7260   -2.1590    5.7320 hc        1 MOL      0.041306
    100 H45         1.1960   -1.6450    6.4510 hc        1 MOL      0.041306
    101 H46         1.4600   -3.3820    6.2080 hc        1 MOL      0.041306
    102 N10         1.8320   -2.1840   -0.0620 n         1 MOL     -0.159530
    103 C32         2.6440   -2.1110   -1.2660 c3        1 MOL     -0.002437
    104 C33         3.9410   -1.3080   -0.9920 c         1 MOL      0.523470
    105 O16         4.0500   -0.7790    0.1030 o         1 MOL     -0.477103
    106 C34         1.7750   -1.4710   -2.3970 c3        1 MOL     -0.147705
    107 C35         0.3160   -1.8380   -2.4800 c         1 MOL      0.733367
    108 O17        -0.4360   -1.3950   -1.6170 o         1 MOL     -0.682584
    109 O18        -0.1100   -2.4640   -3.4540 o         1 MOL     -0.682584
    110 H47         1.5560   -1.2810    0.2820 hn        1 MOL      0.244083
    111 H48         2.8620   -3.1460   -1.5280 h1        1 MOL      0.069070
    112 H49         2.0960   -1.7760   -3.3910 hc        1 MOL      0.031950
    113 H50         1.8500   -0.3980   -2.2160 hc        1 MOL      0.031950
    114 N11         4.8950   -1.2730   -1.9440 n         1 MOL     -0.754521
    115 C36         6.3090   -0.9670   -1.6780 c3        1 MOL      0.623694
    116 C37         6.5900    0.4760   -1.0700 c         1 MOL      0.102086
    117 O19         7.1620    0.5540    0.0510 o         1 MOL     -0.435338
    118 C38         7.2420   -1.3470   -2.7880 c3        1 MOL     -0.239837
    119 C39         8.6540   -1.7680   -2.4410 ca        1 MOL      0.015271
    120 C40         9.7530   -0.9660   -2.7240 ca        1 MOL     -0.097427
    121 C41         8.8030   -2.9430   -1.7550 ca        1 MOL     -0.097427
    122 C42        11.0760   -1.2920   -2.2830 ca        1 MOL     -0.161738
    123 C43        10.1550   -3.3190   -1.3230 ca        1 MOL     -0.161738
    124 C44        11.2860   -2.4250   -1.4900 ca        1 MOL     -0.078423
    125 H51         4.5740   -1.6510   -2.8270 hn        1 MOL      0.311359
    126 H52         6.6350   -1.5990   -0.8540 h1        1 MOL      0.007190
    127 H53         7.2210   -0.6720   -3.6450 hc        1 MOL      0.071932
    128 H54         6.8600   -2.2430   -3.2820 hc        1 MOL      0.071932
    129 H55         9.5050   -0.0990   -3.3280 ha        1 MOL      0.101380
    130 H56         7.9640   -3.6050   -1.5940 ha        1 MOL      0.101380
    131 H57        11.8880   -0.6310   -2.5480 ha        1 MOL      0.119459
    132 H58        10.2670   -4.2950   -0.8730 ha        1 MOL      0.119459
    133 H59        12.2750   -2.5830   -1.0910 ha        1 MOL      0.111839
    134 N12         6.0470    1.5400   -1.7490 n         1 MOL     -0.026299
    135 C45         6.1670    2.9350   -1.1540 c3        1 MOL      0.025503
    136 C46         5.5870    3.1530    0.2480 c         1 MOL      0.352091
    137 O20         6.2530    3.6620    1.1400 o         1 MOL     -0.489398
    138 C47         5.4870    3.8210   -2.1550 c3        1 MOL      0.039560
    139 C48         5.6960    3.1070   -3.5220 c3        1 MOL     -0.051071
    140 C49         5.6740    1.6410   -3.1650 c3        1 MOL     -0.017187
    141 H60         7.2040    3.2760   -1.1930 h1        1 MOL      0.056534
    142 H61         4.4310    3.7150   -1.9120 hc        1 MOL      0.007653
    143 H62         5.9170    4.8230   -2.1390 hc        1 MOL      0.007653
    144 H63         4.9940    3.4340   -4.2900 hc        1 MOL      0.027315
    145 H64         6.7080    3.4270   -3.7780 hc        1 MOL      0.027315
    146 H65         4.6810    1.2100   -3.2930 h1        1 MOL      0.035382
    147 H66         6.3140    1.0820   -3.8480 h1        1 MOL      0.035382
    148 N13         4.5800    2.2530    0.5130 n         1 MOL     -0.255950
    149 C50         3.9900    2.0710    1.8550 c3        1 MOL     -0.104016
    150 C51         4.8850    1.2730    2.7760 c         1 MOL      0.495393
    151 O21         4.7840    1.5160    3.9520 o         1 MOL     -0.576521
    152 C52         2.5210    1.5490    1.7670 c3        1 MOL      0.049540
    153 C53         1.8150    1.9450    0.4330 c3        1 MOL     -0.139917
    154 C54         0.3880    1.3380    0.3350 c         1 MOL      0.521122
    155 O22        -0.5230    1.9560   -0.2990 o         1 MOL     -0.724241
    156 O23         0.0320    0.3500    1.0380 o         1 MOL     -0.724241
    157 H67         4.1430    1.7550   -0.2440 hn        1 MOL      0.220390
    158 H68         3.9590    3.0330    2.3690 h1        1 MOL      0.107316
    159 H69         1.9710    1.9630    2.6100 hc        1 MOL      0.050140
    160 H70         2.5790    0.4620    1.8190 hc        1 MOL      0.050140
    161 H71         2.4090    1.6890   -0.4520 hc        1 MOL      0.071336
    162 H72         1.6910    3.0270    0.4740 hc        1 MOL      0.071336
    163 N14         5.6760    0.3050    2.2770 n         1 MOL     -0.021503
    164 C55         6.5260   -0.4400    3.1520 c3        1 MOL     -0.164983
    165 H73         6.2600   -1.4970    3.1030 h1        1 MOL      0.054657
    166 H74         7.5650   -0.3130    2.8460 h1        1 MOL      0.054657
    167 H75         6.4010   -0.0810    4.1730 h1        1 MOL      0.054657
    168 H76         5.5630    0.0450    1.3030 hn        1 MOL      0.140030
    169 Ca1        -2.1470    0.0220   -0.3320 Ca        1 MOL      1.717750
    170 O24        -3.8480   -0.6270    1.7510 oh        1 MOL     -0.867852
    171 H77        -4.7090   -0.6170    2.1760 ho        1 MOL      0.415948
    172 H78        -3.2190   -0.6320    2.4720 ho        1 MOL      0.415948
@<TRIPOS>BOND
     1    1    2 1   
     2    1    4 1   
     3    1    5 1   
     4    1    6 1   
     5    2    3 2   
     6    2    7 1   
     7    7    8 1   
     8    7   15 1   
     9    8    9 1   
    10    8   11 1   
    11    8   16 1   
    12    9   10 2   
    13    9   19 1   
    14   11   12 1   
    15   11   17 1   
    16   11   18 1   
    17   12   13 1   
    18   12   14 1   
    19   19   20 1   
    20   19   24 1   
    21   20   21 1   
    22   20   23 1   
    23   20   25 1   
    24   21   22 2   
    25   21   29 1   
    26   23   26 1   
    27   23   27 1   
    28   23   28 1   
    29   29   30 1   
    30   29   37 1   
    31   30   31 1   
    32   30   33 1   
    33   30   38 1   
    34   31   32 2   
    35   31   41 1   
    36   33   34 1   
    37   33   39 1   
    38   33   40 1   
    39   34   35 1   
    40   34   36 1   
    41   41   42 1   
    42   41   45 1   
    43   42   43 1   
    44   42   46 1   
    45   42   47 1   
    46   43   44 2   
    47   43   48 1   
    48   48   49 1   
    49   48   56 1   
    50   49   50 1   
    51   49   52 1   
    52   49   57 1   
    53   50   51 2   
    54   50   62 1   
    55   52   53 1   
    56   52   58 1   
    57   52   59 1   
    58   53   54 1   
    59   53   55 2   
    60   54   60 1   
    61   54   61 1   
    62   62   63 1   
    63   62   66 1   
    64   63   64 1   
    65   63   67 1   
    66   63   68 1   
    67   64   65 2   
    68   64   69 1   
    69   69   70 1   
    70   69   76 1   
    71   70   71 1   
    72   70   73 1   
    73   70   77 1   
    74   71   72 2   
    75   71   83 1   
    76   73   74 1   
    77   73   75 1   
    78   73   78 1   
    79   74   80 1   
    80   74   81 1   
    81   74   82 1   
    82   75   79 1   
    83   83   84 1   
    84   83   91 1   
    85   84   85 1   
    86   84   87 1   
    87   84   92 1   
    88   85   86 2   
    89   85  102 1   
    90   87   88 1   
    91   87   89 1   
    92   87   93 1   
    93   88   90 1   
    94   88   94 1   
    95   88   95 1   
    96   89   96 1   
    97   89   97 1   
    98   89   98 1   
    99   90   99 1   
   100   90  100 1   
   101   90  101 1   
   102  102  103 1   
   103  102  110 1   
   104  103  104 1   
   105  103  106 1   
   106  103  111 1   
   107  104  105 2   
   108  104  114 1   
   109  106  107 1   
   110  106  112 1   
   111  106  113 1   
   112  107  108 1   
   113  107  109 1   
   114  114  115 1   
   115  114  125 1   
   116  115  116 1   
   117  115  118 1   
   118  115  126 1   
   119  116  117 2   
   120  116  134 1   
   121  118  119 1   
   122  118  127 1   
   123  118  128 1   
   124  119  120 ar  
   125  119  121 ar  
   126  120  122 ar  
   127  120  129 1   
   128  121  123 ar  
   129  121  130 1   
   130  122  124 ar  
   131  122  131 1   
   132  123  124 ar  
   133  123  132 1   
   134  124  133 1   
   135  134  135 1   
   136  134  140 1   
   137  135  136 1   
   138  135  138 1   
   139  135  141 1   
   140  136  137 2   
   141  136  148 1   
   142  138  139 1   
   143  138  142 1   
   144  138  143 1   
   145  139  140 1   
   146  139  144 1   
   147  139  145 1   
   148  140  146 1   
   149  140  147 1   
   150  148  149 1   
   151  148  157 1   
   152  149  150 1   
   153  149  152 1   
   154  149  158 1   
   155  150  151 2   
   156  150  163 1   
   157  152  153 1   
   158  152  159 1   
   159  152  160 1   
   160  153  154 1   
   161  153  161 1   
   162  153  162 1   
   163  154  155 1   
   164  154  156 1   
   165  163  164 1   
   166  163  168 1   
   167  164  165 1   
   168  164  166 1   
   169  164  167 1   
   170  170  171 1   
   171  170  172 1   
@<TRIPOS>SUBSTRUCTURE
     1 MOL         1 TEMP              0 ****  ****    0 ROOT
