@<TRIPOS>MOLECULE
MOL
  175   173     1     0     0
SMALL
resp


@<TRIPOS>ATOM
      1 C1          0.8220    4.4530    5.2240 c3        1 MOL     -0.347124
      2 C2          0.2710    4.3270    3.8280 c         1 MOL      0.756120
      3 O1          0.9090    4.4570    2.7770 o         1 MOL     -0.599193
      4 H1          0.1940    5.1320    5.8020 hc        1 MOL      0.084157
      5 H2          0.8310    3.4720    5.7010 hc        1 MOL      0.084157
      6 H3          1.8380    4.8460    5.1800 hc        1 MOL      0.084157
      7 N1         -1.0100    4.0800    3.6660 n         1 MOL     -0.593521
      8 C3         -1.7410    3.7050    2.4420 c3        1 MOL      0.081216
      9 C4         -1.8260    4.9080    1.4410 c         1 MOL      0.561683
     10 O2         -2.1600    6.0570    1.8170 o         1 MOL     -0.554846
     11 C5         -3.0690    3.3340    3.0680 c3        1 MOL     -0.543541
     12 C6         -3.8890    2.4950    2.0240 c         1 MOL      0.842893
     13 O3         -4.9340    1.9300    2.4020 o         1 MOL     -0.694620
     14 O4         -3.3360    2.1280    0.9460 o         1 MOL     -0.694620
     15 H4         -1.6450    4.1490    4.4540 hn        1 MOL      0.301102
     16 H5         -1.2500    2.8090    2.0710 h1        1 MOL      0.162470
     17 H6         -3.5540    4.2760    3.3380 hc        1 MOL      0.142081
     18 H7         -3.0070    2.6050    3.8700 hc        1 MOL      0.142081
     19 N2         -1.7610    4.5600    0.0930 n         1 MOL     -0.481351
     20 C7         -2.0740    5.4390   -0.9470 c3        1 MOL      0.488078
     21 C8         -3.1050    4.9430   -1.8540 c         1 MOL      0.410704
     22 O5         -3.1720    5.4150   -3.0070 o         1 MOL     -0.570049
     23 C9         -0.7110    6.0690   -1.4450 c3        1 MOL     -0.456853
     24 H8         -1.4860    3.5940   -0.0180 hn        1 MOL      0.264265
     25 H9         -2.5830    6.2850   -0.4870 h1        1 MOL     -0.031133
     26 H10        -0.2260    6.2840   -0.4930 hc        1 MOL      0.109015
     27 H11        -0.0460    5.3370   -1.9050 hc        1 MOL      0.109015
     28 H12        -0.9980    6.9400   -2.0260 hc        1 MOL      0.109015
     29 N3         -3.9740    3.9280   -1.5810 n         1 MOL     -0.388436
     30 C10        -4.9060    3.3020   -2.5910 c3        1 MOL      0.089996
     31 C11        -6.1630    2.5550   -1.9850 c         1 MOL      0.309592
     32 O6         -7.1320    2.3650   -2.7220 o         1 MOL     -0.522418
     33 C12        -4.2840    2.3950   -3.6270 c3        1 MOL     -0.114147
     34 C13        -3.3980    1.2730   -3.0150 c         1 MOL      0.699715
     35 O7         -3.7260    0.8520   -1.9030 o         1 MOL     -0.694953
     36 O8         -2.3370    0.8950   -3.5770 o         1 MOL     -0.694953
     37 H13        -3.9200    3.5690   -0.6380 hn        1 MOL      0.176192
     38 H14        -5.2920    4.1620   -3.1430 h1        1 MOL      0.075288
     39 H15        -3.7160    3.0180   -4.3260 hc        1 MOL      0.030819
     40 H16        -4.9970    1.8820   -4.2650 hc        1 MOL      0.030819
     41 N4         -6.1650    2.1340   -0.7330 n         1 MOL     -0.123878
     42 C14        -7.1680    1.2800   -0.0690 c3        1 MOL     -0.223911
     43 C15        -7.4170   -0.0420   -0.8020 c         1 MOL      0.591847
     44 O9         -8.5720   -0.5270   -0.7360 o         1 MOL     -0.611379
     45 H17        -5.2910    2.2330   -0.2360 hn        1 MOL      0.099520
     46 H18        -8.1440    1.7520   -0.0400 h1        1 MOL      0.100249
     47 H19        -6.7690    1.1460    0.9360 h1        1 MOL      0.100249
     48 N5         -6.4050   -0.5830   -1.5170 n         1 MOL     -0.387270
     49 C16        -6.3590   -1.9450   -2.0460 c3        1 MOL      0.028742
     50 C17        -6.2850   -3.0900   -1.0750 c         1 MOL      0.367438
     51 O10        -6.1860   -4.2210   -1.5300 o         1 MOL     -0.475823
     52 C18        -5.2340   -2.0250   -3.1170 c3        1 MOL     -0.226512
     53 C19        -3.8100   -2.2510   -2.4510 c         1 MOL      0.485659
     54 N6         -2.8930   -2.5100   -3.3100 n         1 MOL     -0.625382
     55 O11        -3.5980   -2.0200   -1.2720 o         1 MOL     -0.415886
     56 H20        -5.5410   -0.0730   -1.6470 hn        1 MOL      0.360214
     57 H21        -7.3100   -2.0950   -2.5690 h1        1 MOL      0.103475
     58 H22        -5.1110   -1.1550   -3.7590 hc        1 MOL      0.067348
     59 H23        -5.4440   -2.9050   -3.7180 hc        1 MOL      0.067348
     60 H24        -3.0980   -2.4140   -4.2890 hn        1 MOL      0.342883
     61 H25        -1.9470   -2.2710   -3.0410 hn        1 MOL      0.342883
     62 N7         -6.3980   -2.8370    0.2790 n         1 MOL     -0.211156
     63 C20        -6.3870   -3.8750    1.3350 c3        1 MOL     -0.251080
     64 C21        -4.9680   -4.5480    1.6530 c         1 MOL      0.509269
     65 O12        -4.8950   -5.4350    2.4980 o         1 MOL     -0.567934
     66 H26        -6.6110   -1.8860    0.5640 hn        1 MOL      0.212843
     67 H27        -7.0990   -4.6700    1.1130 h1        1 MOL      0.122167
     68 H28        -6.8060   -3.3820    2.2180 h1        1 MOL      0.122167
     69 N8         -3.8350   -4.0290    1.1040 n         1 MOL     -0.096826
     70 C22        -2.4680   -4.5130    1.4700 c3        1 MOL     -0.346212
     71 C23        -1.5330   -3.3710    1.7100 c         1 MOL      0.776692
     72 O13        -1.7340   -2.2570    1.2210 o         1 MOL     -0.735298
     73 C24        -1.9930   -5.3810    0.3430 c3        1 MOL      0.516741
     74 C25        -2.7540   -6.7020    0.3070 c3        1 MOL     -0.304666
     75 O14        -2.0280   -4.8520   -0.9190 oh        1 MOL     -0.623329
     76 H29        -3.9820   -3.0860    0.7730 hn        1 MOL      0.087307
     77 H30        -2.4710   -5.1130    2.3790 h1        1 MOL      0.116281
     78 H31        -0.9650   -5.6910    0.5100 h1        1 MOL     -0.041457
     79 H32        -1.9040   -3.8950   -0.9470 ho        1 MOL      0.391757
     80 H33        -2.4300   -7.4560   -0.4000 hc        1 MOL      0.071499
     81 H34        -2.5930   -7.2090    1.2500 hc        1 MOL      0.071499
     82 H35        -3.8030   -6.4820    0.1000 hc        1 MOL      0.071499
     83 N9         -0.4280   -3.6010    2.3660 n         1 MOL     -0.538257
     84 C26         0.8180   -2.7470    2.2140 c3        1 MOL     -0.017072
     85 C27         1.6090   -3.1540    0.9440 c         1 MOL      0.446689
     86 O15         1.9960   -4.2570    0.6530 o         1 MOL     -0.568041
     87 C28         1.6600   -2.7300    3.5310 c3        1 MOL      0.197431
     88 C29         0.8750   -2.3430    4.7940 c3        1 MOL     -0.024297
     89 C30         2.8940   -1.9120    3.3700 c3        1 MOL     -0.192745
     90 C31         1.3650   -2.7430    6.1650 c3        1 MOL     -0.073335
     91 H36        -0.4030   -4.4580    2.8830 hn        1 MOL      0.287977
     92 H37         0.5380   -1.7080    2.0860 h1        1 MOL      0.094130
     93 H38         1.9620   -3.7680    3.6600 hc        1 MOL     -0.029331
     94 H39        -0.1410   -2.7340    4.7100 hc        1 MOL      0.004940
     95 H40         0.7560   -1.2580    4.8440 hc        1 MOL      0.004940
     96 H41         2.5360   -0.8860    3.1910 hc        1 MOL      0.036987
     97 H42         3.4890   -1.8860    4.2790 hc        1 MOL      0.036987
     98 H43         3.5800   -2.2750    2.6070 hc        1 MOL      0.036987
     99 H44         0.7520   -2.3380    6.9630 hc        1 MOL      0.014152
    100 H45         1.4160   -3.8260    6.2600 hc        1 MOL      0.014152
    101 H46         2.3680   -2.3570    6.3790 hc        1 MOL      0.014152
    102 N10         1.7050   -2.1530    0.0720 n         1 MOL     -0.088784
    103 C32         2.4460   -2.0300   -1.2310 c3        1 MOL     -0.034511
    104 C33         3.9340   -1.5640   -0.9140 c         1 MOL      0.452278
    105 O16         4.0320   -0.8420    0.0840 o         1 MOL     -0.376589
    106 C34         1.7110   -1.0880   -2.1720 c3        1 MOL     -0.310736
    107 C35         0.2690   -1.5490   -2.4070 c         1 MOL      0.752287
    108 O17        -0.6770   -1.2980   -1.6130 o         1 MOL     -0.689912
    109 O18        -0.0750   -2.2610   -3.4220 o         1 MOL     -0.689912
    110 H47         1.2590   -1.3040    0.3800 hn        1 MOL      0.162540
    111 H48         2.5550   -3.0380   -1.6370 h1        1 MOL      0.078948
    112 H49         2.2970   -1.0020   -3.0880 hc        1 MOL      0.097436
    113 H50         1.7350   -0.1250   -1.6550 hc        1 MOL      0.097436
    114 N11         4.9400   -2.0340   -1.6980 n         1 MOL     -0.618624
    115 C36         6.3210   -1.6570   -1.3730 c3        1 MOL      0.431748
    116 C37         6.6390   -0.1600   -1.2250 c         1 MOL      0.327156
    117 O19         7.2680    0.1790   -0.2270 o         1 MOL     -0.508681
    118 C38         7.3790   -2.3260   -2.3220 c3        1 MOL     -0.317942
    119 C39         8.9000   -2.0930   -1.9570 ca        1 MOL      0.184584
    120 C40         9.5750   -1.1490   -2.7510 ca        1 MOL     -0.265040
    121 C41         9.4840   -2.7900   -0.8900 ca        1 MOL     -0.265040
    122 C42        10.8680   -0.8470   -2.3740 ca        1 MOL     -0.006538
    123 C43        10.8130   -2.5320   -0.5650 ca        1 MOL     -0.006538
    124 C44        11.4840   -1.5450   -1.3170 ca        1 MOL     -0.191336
    125 H51         4.7950   -2.6910   -2.4420 hn        1 MOL      0.336243
    126 H52         6.4890   -2.1460   -0.4180 h1        1 MOL      0.026319
    127 H53         7.1350   -2.0610   -3.3450 hc        1 MOL      0.079679
    128 H54         7.1580   -3.3990   -2.2880 hc        1 MOL      0.079679
    129 H55         9.0820   -0.6360   -3.5600 ha        1 MOL      0.152991
    130 H56         8.9800   -3.5340   -0.2900 ha        1 MOL      0.152991
    131 H57        11.4940   -0.1930   -2.9590 ha        1 MOL      0.090547
    132 H58        11.2350   -3.0740    0.2670 ha        1 MOL      0.090547
    133 H59        12.5190   -1.3450   -1.1010 ha        1 MOL      0.103510
    134 N12         6.1000    0.8020   -1.9450 n         1 MOL     -0.091659
    135 C45         6.2300    2.2830   -1.7700 c3        1 MOL      0.118128
    136 C46         5.6610    2.7750   -0.4370 c         1 MOL      0.270842
    137 O20         6.1280    3.7690    0.0900 o         1 MOL     -0.507044
    138 C47         5.4490    2.9020   -2.9880 c3        1 MOL     -0.107475
    139 C48         5.4770    1.8000   -4.0510 c3        1 MOL      0.036041
    140 C49         5.3720    0.5600   -3.2000 c3        1 MOL     -0.092710
    141 H60         7.2940    2.5330   -1.8240 h1        1 MOL      0.044927
    142 H61         4.4300    3.0650   -2.6470 hc        1 MOL      0.052760
    143 H62         5.9520    3.8520   -3.1860 hc        1 MOL      0.052760
    144 H63         4.7160    1.9290   -4.8180 hc        1 MOL      0.016133
    145 H64         6.4420    1.8460   -4.5740 hc        1 MOL      0.016133
    146 H65         4.3280    0.3150   -2.9670 h1        1 MOL      0.045125
    147 H66         5.8770   -0.2370   -3.7500 h1        1 MOL      0.045125
    148 N13         4.7230    2.0700    0.1990 n         1 MOL     -0.062580
    149 C50         4.1550    2.4050    1.4750 c3        1 MOL     -0.103031
    150 C51         5.0290    1.7830    2.5920 c         1 MOL      0.476845
    151 O21         5.2150    2.3640    3.6100 o         1 MOL     -0.562638
    152 C52         2.7330    1.9150    1.5090 c3        1 MOL      0.050971
    153 C53         1.7660    2.1630    0.2870 c3        1 MOL     -0.061963
    154 C54         0.4320    1.4070    0.3920 c         1 MOL      0.567058
    155 O22        -0.5440    1.9190   -0.1640 o         1 MOL     -0.672889
    156 O23         0.3320    0.2950    0.8950 o         1 MOL     -0.672889
    157 H67         4.3980    1.2270   -0.2520 hn        1 MOL      0.124984
    158 H68         4.1990    3.4700    1.6860 h1        1 MOL      0.105565
    159 H69         2.2420    2.4510    2.3300 hc        1 MOL     -0.004342
    160 H70         2.7490    0.8450    1.6880 hc        1 MOL     -0.004342
    161 H71         2.1820    1.7790   -0.6460 hc        1 MOL      0.044740
    162 H72         1.6460    3.2190    0.0440 hc        1 MOL      0.044740
    163 N14         5.6410    0.6380    2.3490 n         1 MOL     -0.066308
    164 C55         6.6210   -0.0180    3.1860 c3        1 MOL     -0.152248
    165 H73         6.9160    0.6530    3.9940 h1        1 MOL      0.060581
    166 H74         6.1890   -0.9250    3.6080 h1        1 MOL      0.060581
    167 H75         7.4960   -0.2750    2.5900 h1        1 MOL      0.060581
    168 H76         5.4510    0.1380    1.4900 hn        1 MOL      0.082864
    169 Ca1        -2.2240   -0.0110   -0.0480 Ca        1 MOL      1.656828
    170 O24        -2.0450    0.1620    2.7530 oh        1 MOL     -0.722269
    171 H77        -1.1250   -0.0870    2.8380 ho        1 MOL      0.369177
    172 H78        -2.4400   -0.0340    3.5970 ho        1 MOL      0.369177
    173 O25        -4.7030   -0.4000    1.0140 oh        1 MOL     -0.722269
    174 H79        -5.1230   -0.8220    1.7680 ho        1 MOL      0.369177
    175 H80        -4.7770    0.5360    1.1850 ho        1 MOL      0.369177
@<TRIPOS>BOND
     1    1    2 1   
     2    1    4 1   
     3    1    5 1   
     4    1    6 1   
     5    2    3 2   
     6    2    7 1   
     7    7    8 1   
     8    7   15 1   
     9    8    9 1   
    10    8   11 1   
    11    8   16 1   
    12    9   10 2   
    13    9   19 1   
    14   11   12 1   
    15   11   17 1   
    16   11   18 1   
    17   12   13 1   
    18   12   14 1   
    19   19   20 1   
    20   19   24 1   
    21   20   21 1   
    22   20   23 1   
    23   20   25 1   
    24   21   22 2   
    25   21   29 1   
    26   23   26 1   
    27   23   27 1   
    28   23   28 1   
    29   29   30 1   
    30   29   37 1   
    31   30   31 1   
    32   30   33 1   
    33   30   38 1   
    34   31   32 2   
    35   31   41 1   
    36   33   34 1   
    37   33   39 1   
    38   33   40 1   
    39   34   35 1   
    40   34   36 1   
    41   41   42 1   
    42   41   45 1   
    43   42   43 1   
    44   42   46 1   
    45   42   47 1   
    46   43   44 2   
    47   43   48 1   
    48   48   49 1   
    49   48   56 1   
    50   49   50 1   
    51   49   52 1   
    52   49   57 1   
    53   50   51 2   
    54   50   62 1   
    55   52   53 1   
    56   52   58 1   
    57   52   59 1   
    58   53   54 1   
    59   53   55 2   
    60   54   60 1   
    61   54   61 1   
    62   62   63 1   
    63   62   66 1   
    64   63   64 1   
    65   63   67 1   
    66   63   68 1   
    67   64   65 2   
    68   64   69 1   
    69   69   70 1   
    70   69   76 1   
    71   70   71 1   
    72   70   73 1   
    73   70   77 1   
    74   71   72 2   
    75   71   83 1   
    76   73   74 1   
    77   73   75 1   
    78   73   78 1   
    79   74   80 1   
    80   74   81 1   
    81   74   82 1   
    82   75   79 1   
    83   83   84 1   
    84   83   91 1   
    85   84   85 1   
    86   84   87 1   
    87   84   92 1   
    88   85   86 2   
    89   85  102 1   
    90   87   88 1   
    91   87   89 1   
    92   87   93 1   
    93   88   90 1   
    94   88   94 1   
    95   88   95 1   
    96   89   96 1   
    97   89   97 1   
    98   89   98 1   
    99   90   99 1   
   100   90  100 1   
   101   90  101 1   
   102  102  103 1   
   103  102  110 1   
   104  103  104 1   
   105  103  106 1   
   106  103  111 1   
   107  104  105 2   
   108  104  114 1   
   109  106  107 1   
   110  106  112 1   
   111  106  113 1   
   112  107  108 1   
   113  107  109 1   
   114  114  115 1   
   115  114  125 1   
   116  115  116 1   
   117  115  118 1   
   118  115  126 1   
   119  116  117 2   
   120  116  134 1   
   121  118  119 1   
   122  118  127 1   
   123  118  128 1   
   124  119  120 ar  
   125  119  121 ar  
   126  120  122 ar  
   127  120  129 1   
   128  121  123 ar  
   129  121  130 1   
   130  122  124 ar  
   131  122  131 1   
   132  123  124 ar  
   133  123  132 1   
   134  124  133 1   
   135  134  135 1   
   136  134  140 1   
   137  135  136 1   
   138  135  138 1   
   139  135  141 1   
   140  136  137 2   
   141  136  148 1   
   142  138  139 1   
   143  138  142 1   
   144  138  143 1   
   145  139  140 1   
   146  139  144 1   
   147  139  145 1   
   148  140  146 1   
   149  140  147 1   
   150  148  149 1   
   151  148  157 1   
   152  149  150 1   
   153  149  152 1   
   154  149  158 1   
   155  150  151 2   
   156  150  163 1   
   157  152  153 1   
   158  152  159 1   
   159  152  160 1   
   160  153  154 1   
   161  153  161 1   
   162  153  162 1   
   163  154  155 1   
   164  154  156 1   
   165  163  164 1   
   166  163  168 1   
   167  164  165 1   
   168  164  166 1   
   169  164  167 1   
   170  170  171 1   
   171  170  172 1   
   172  173  174 1   
   173  173  175 1   
@<TRIPOS>SUBSTRUCTURE
     1 MOL         1 TEMP              0 ****  ****    0 ROOT
