@<TRIPOS>MOLECULE
MOL
  172   171     1     0     0
SMALL
resp


@<TRIPOS>ATOM
      1 C1          0.6060    3.7780    5.7810 c3        1 MOL     -0.449331
      2 C2         -0.0340    3.7810    4.3240 c         1 MOL      0.755114
      3 O1          0.6050    4.0800    3.3550 o         1 MOL     -0.552047
      4 H1          0.5530    2.7730    6.1990 hc        1 MOL      0.110489
      5 H2          1.6480    4.0910    5.7220 hc        1 MOL      0.110489
      6 H3          0.0550    4.4660    6.4220 hc        1 MOL      0.110489
      7 N1         -1.3320    3.5430    4.2250 n         1 MOL     -0.665150
      8 C3         -1.9810    3.3410    2.9000 c3        1 MOL      0.320202
      9 C4         -2.1030    4.6040    2.0050 c         1 MOL      0.443003
     10 O2         -2.4150    5.7350    2.4230 o         1 MOL     -0.572585
     11 C5         -3.3830    2.7720    3.0950 c3        1 MOL     -0.272092
     12 C6         -4.0330    2.3280    1.7800 c         1 MOL      0.559244
     13 O3         -3.3880    1.8750    0.8290 o         1 MOL     -0.639088
     14 O4         -5.2070    2.6860    1.5610 o         1 MOL     -0.639088
     15 H4         -1.9050    3.3180    5.0210 hn        1 MOL      0.312335
     16 H5         -1.4060    2.6020    2.3490 h1        1 MOL     -0.045149
     17 H6         -4.0730    3.4450    3.6050 hc        1 MOL      0.063655
     18 H7         -3.2830    1.9110    3.7420 hc        1 MOL      0.063655
     19 N2         -2.0670    4.3110    0.6780 n         1 MOL     -0.219587
     20 C7         -2.1630    5.3310   -0.3580 c3        1 MOL      0.154304
     21 C8         -3.3030    5.0440   -1.4100 c         1 MOL      0.405190
     22 O5         -3.5050    5.7990   -2.3420 o         1 MOL     -0.545750
     23 C9         -0.7640    5.5280   -1.0500 c3        1 MOL     -0.205728
     24 H8         -1.8440    3.4030    0.2840 hn        1 MOL      0.330165
     25 H9         -2.3600    6.3140    0.0680 h1        1 MOL      0.039683
     26 H10        -0.6070    4.8050   -1.8580 hc        1 MOL      0.052753
     27 H11        -0.5950    6.4930   -1.5160 hc        1 MOL      0.052753
     28 H12        -0.0230    5.3210   -0.2770 hc        1 MOL      0.052753
     29 N3         -4.0680    3.9270   -1.3190 n         1 MOL     -0.375553
     30 C10        -4.9190    3.5350   -2.4700 c3        1 MOL      0.116013
     31 C11        -6.1350    2.6790   -2.1790 c         1 MOL      0.327128
     32 O6         -7.0330    2.6460   -3.0230 o         1 MOL     -0.564714
     33 C12        -3.9530    2.9300   -3.5360 c3        1 MOL      0.082383
     34 C13        -3.1820    1.6150   -3.1690 c         1 MOL      0.639962
     35 O7         -3.4860    0.9330   -2.1940 o         1 MOL     -0.682297
     36 O8         -2.2620    1.4090   -3.9990 o         1 MOL     -0.682297
     37 H13        -3.9460    3.2100   -0.6240 hn        1 MOL      0.134691
     38 H14        -5.2980    4.4260   -2.9620 h1        1 MOL      0.060169
     39 H15        -3.2840    3.7290   -3.8680 hc        1 MOL     -0.028423
     40 H16        -4.6260    2.7570   -4.3750 hc        1 MOL     -0.028423
     41 N4         -6.2180    2.0490   -1.0350 n         1 MOL      0.005977
     42 C14        -7.4130    1.4040   -0.5170 c3        1 MOL     -0.315955
     43 C15        -7.4500   -0.1190   -0.8680 c         1 MOL      0.505887
     44 O9         -8.4790   -0.7860   -0.6460 o         1 MOL     -0.631117
     45 H17        -5.4440    2.1880   -0.3900 hn        1 MOL      0.153448
     46 H18        -8.2430    1.9630   -0.9450 h1        1 MOL      0.135805
     47 H19        -7.3680    1.4610    0.5770 h1        1 MOL      0.135805
     48 N5         -6.4400   -0.7170   -1.4120 n         1 MOL     -0.107571
     49 C16        -6.3940   -2.1710   -1.8720 c3        1 MOL     -0.068407
     50 C17        -6.3850   -3.1790   -0.7160 c         1 MOL      0.427452
     51 O10        -6.6600   -4.3900   -0.9370 o         1 MOL     -0.523051
     52 C18        -5.2370   -2.2950   -2.8980 c3        1 MOL     -0.260651
     53 C19        -3.8340   -2.3040   -2.2810 c         1 MOL      0.710979
     54 N6         -2.7970   -2.5150   -3.0550 n         1 MOL     -0.753283
     55 O11        -3.6720   -1.9790   -1.1380 o         1 MOL     -0.574516
     56 H20        -5.6440   -0.1000   -1.5440 hn        1 MOL      0.089965
     57 H21        -7.2700   -2.3020   -2.4960 h1        1 MOL      0.125366
     58 H22        -5.3590   -1.5050   -3.6390 hc        1 MOL      0.089368
     59 H23        -5.3300   -3.2920   -3.3290 hc        1 MOL      0.089368
     60 H24        -2.8460   -2.9050   -3.9930 hn        1 MOL      0.362974
     61 H25        -1.9370   -2.1300   -2.6850 hn        1 MOL      0.362974
     62 N7         -6.2710   -2.6980    0.4880 n         1 MOL     -0.129879
     63 C20        -6.1390   -3.5090    1.6540 c3        1 MOL     -0.255657
     64 C21        -4.8130   -4.2640    1.9430 c         1 MOL      0.474204
     65 O12        -4.8920   -5.2700    2.6540 o         1 MOL     -0.556782
     66 H26        -6.4740   -1.7200    0.6310 hn        1 MOL      0.249181
     67 H27        -6.9180   -4.2530    1.7560 h1        1 MOL      0.097771
     68 H28        -6.1560   -2.7840    2.4770 h1        1 MOL      0.097771
     69 N8         -3.7380   -3.9730    1.2670 n         1 MOL      0.125839
     70 C22        -2.4140   -4.5530    1.4440 c3        1 MOL     -0.483167
     71 C23        -1.3090   -3.4830    1.4100 c         1 MOL      0.586052
     72 O13        -1.5300   -2.4470    0.8730 o         1 MOL     -0.476557
     73 C24        -2.0790   -5.6010    0.3160 c3        1 MOL      0.535279
     74 C25        -3.1360   -6.6980    0.2110 c3        1 MOL     -0.529480
     75 O14        -2.0160   -4.9320   -0.8460 oh        1 MOL     -0.544032
     76 H29        -3.7290   -3.0750    0.8120 hn        1 MOL      0.017592
     77 H30        -2.2930   -5.0470    2.4140 h1        1 MOL      0.109973
     78 H31        -1.0890   -6.0410    0.4740 h1        1 MOL      0.000055
     79 H32        -2.6290   -4.1950   -0.7510 ho        1 MOL      0.301703
     80 H33        -4.0470   -6.2230   -0.1560 hc        1 MOL      0.130105
     81 H34        -2.7260   -7.4720   -0.4350 hc        1 MOL      0.130105
     82 H35        -3.3340   -7.2190    1.1480 hc        1 MOL      0.130105
     83 N9         -0.1090   -3.7960    1.8960 n         1 MOL     -0.471794
     84 C26         1.0450   -2.8160    1.9570 c3        1 MOL     -0.298023
     85 C27         1.7550   -2.9760    0.6640 c         1 MOL      0.638918
     86 O15         2.3330   -4.0440    0.3140 o         1 MOL     -0.625522
     87 C28         1.9400   -3.1260    3.1150 c3        1 MOL      0.266610
     88 C29         1.1160   -2.8970    4.4330 c3        1 MOL      0.146119
     89 C30         3.3480   -2.3800    3.0680 c3        1 MOL     -0.178579
     90 C31         1.9800   -2.7220    5.6680 c3        1 MOL     -0.277512
     91 H36         0.1530   -4.6750    2.3150 hn        1 MOL      0.319250
     92 H37         0.6710   -1.7950    2.0790 h1        1 MOL      0.178898
     93 H38         2.1410   -4.1990    3.0960 hc        1 MOL     -0.032968
     94 H39         0.4800   -3.7730    4.5620 hc        1 MOL     -0.036741
     95 H40         0.4980   -2.0060    4.3090 hc        1 MOL     -0.036741
     96 H41         4.0490   -2.7850    3.7910 hc        1 MOL      0.027507
     97 H42         3.7730   -2.5120    2.0670 hc        1 MOL      0.027507
     98 H43         3.2140   -1.2940    3.1700 hc        1 MOL      0.027507
     99 H44         2.3400   -3.6980    5.9960 hc        1 MOL      0.058109
    100 H45         2.7040   -1.9430    5.4480 hc        1 MOL      0.058109
    101 H46         1.3730   -2.2660    6.4590 hc        1 MOL      0.058109
    102 N10         1.7480   -1.9450   -0.1490 n         1 MOL     -0.153620
    103 C32         2.5080   -1.8620   -1.3950 c3        1 MOL      0.023533
    104 C33         3.8250   -1.2460   -1.1320 c         1 MOL      0.253714
    105 O16         4.0000   -0.5080   -0.1560 o         1 MOL     -0.235686
    106 C34         1.7300   -1.1040   -2.4420 c3        1 MOL     -0.118529
    107 C35         0.3170   -1.5420   -2.7020 c         1 MOL      0.630829
    108 O17        -0.5370   -1.2610   -1.8610 o         1 MOL     -0.648989
    109 O18         0.1420   -2.1500   -3.7870 o         1 MOL     -0.648989
    110 H47         1.3570   -1.1080    0.2650 hn        1 MOL      0.049980
    111 H48         2.6960   -2.8380   -1.8400 h1        1 MOL      0.073155
    112 H49         2.4030   -1.0860   -3.2980 hc        1 MOL      0.045421
    113 H50         1.6080   -0.0650   -2.1430 hc        1 MOL      0.045421
    114 N11         4.8080   -1.5430   -1.9420 n         1 MOL     -0.512306
    115 C36         6.2230   -1.3150   -1.5630 c3        1 MOL      0.318539
    116 C37         6.5910    0.1650   -1.1640 c         1 MOL      0.320167
    117 O19         7.3890    0.3930   -0.2550 o         1 MOL     -0.455637
    118 C38         7.1870   -1.9070   -2.5810 c3        1 MOL     -0.373345
    119 C39         8.6320   -1.7370   -2.1590 ca        1 MOL      0.250190
    120 C40         9.1940   -2.4050   -1.0720 ca        1 MOL     -0.270377
    121 C41         9.6130   -0.9400   -2.9240 ca        1 MOL     -0.270377
    122 C42        10.5490   -2.2320   -0.6420 ca        1 MOL     -0.029972
    123 C43        10.9240   -0.8580   -2.5430 ca        1 MOL     -0.029972
    124 C44        11.4490   -1.4750   -1.3720 ca        1 MOL     -0.182917
    125 H51         4.4740   -1.9620   -2.7940 hn        1 MOL      0.322526
    126 H52         6.3180   -1.8800   -0.6340 h1        1 MOL      0.073855
    127 H53         7.1500   -1.4620   -3.5780 hc        1 MOL      0.102465
    128 H54         6.9940   -2.9710   -2.5670 hc        1 MOL      0.102465
    129 H55         8.5300   -3.0740   -0.5250 ha        1 MOL      0.132258
    130 H56         9.2760   -0.4000   -3.7960 ha        1 MOL      0.132258
    131 H57        10.9420   -2.8330    0.1750 ha        1 MOL      0.089136
    132 H58        11.5820   -0.2460   -3.1350 ha        1 MOL      0.089136
    133 H59        12.4640   -1.4640   -1.0190 ha        1 MOL      0.122973
    134 N12         5.9340    1.1450   -1.7810 n         1 MOL     -0.065780
    135 C45         6.1070    2.5050   -1.4060 c3        1 MOL     -0.004445
    136 C46         5.6640    2.8190    0.0240 c         1 MOL      0.158669
    137 O20         6.2190    3.5720    0.8040 o         1 MOL     -0.470982
    138 C47         5.3640    3.3910   -2.4430 c3        1 MOL      0.115353
    139 C48         5.1420    2.5120   -3.5860 c3        1 MOL     -0.198317
    140 C49         5.0120    1.1200   -2.9690 c3        1 MOL      0.059990
    141 H60         7.1640    2.6520   -1.6230 h1        1 MOL      0.060749
    142 H61         4.3750    3.7250   -2.1250 hc        1 MOL      0.011956
    143 H62         5.9460    4.2730   -2.7010 hc        1 MOL      0.011956
    144 H63         4.1890    2.6620   -4.0870 hc        1 MOL      0.059065
    145 H64         5.9970    2.5000   -4.2630 hc        1 MOL      0.059065
    146 H65         3.9900    0.9420   -2.6440 h1        1 MOL      0.033683
    147 H66         5.2470    0.4230   -3.7740 h1        1 MOL      0.033683
    148 N13         4.5870    2.1200    0.4270 n         1 MOL      0.060968
    149 C50         3.9590    2.1900    1.7400 c3        1 MOL     -0.237274
    150 C51         4.7980    1.4260    2.7550 c         1 MOL      0.514652
    151 O21         4.9470    1.8620    3.8880 o         1 MOL     -0.559874
    152 C52         2.5460    1.5460    1.6130 c3        1 MOL     -0.092962
    153 C53         1.6500    2.2720    0.5490 c3        1 MOL     -0.033938
    154 C54         0.2790    1.5980    0.4220 c         1 MOL      0.799119
    155 O22         0.0890    0.4940    1.0140 o         1 MOL     -0.796088
    156 O23        -0.5710    2.0650   -0.3680 o         1 MOL     -0.796088
    157 H67         4.2240    1.5800   -0.3460 hn        1 MOL      0.109499
    158 H68         3.8880    3.2560    1.9780 h1        1 MOL      0.145799
    159 H69         2.0990    1.7780    2.5780 hc        1 MOL      0.063589
    160 H70         2.5190    0.4530    1.5340 hc        1 MOL      0.063589
    161 H71         2.1960    2.3050   -0.3910 hc        1 MOL      0.009681
    162 H72         1.3100    3.2750    0.8260 hc        1 MOL      0.009681
    163 N14         5.5110    0.3340    2.3240 n         1 MOL     -0.036017
    164 C55         6.5310   -0.4150    3.1130 c3        1 MOL     -0.119711
    165 H73         6.0340   -1.1620    3.7320 h1        1 MOL      0.050659
    166 H74         7.2250   -0.9080    2.4340 h1        1 MOL      0.050659
    167 H75         7.0770    0.2790    3.7520 h1        1 MOL      0.050659
    168 H76         5.4890    0.0320    1.3580 hn        1 MOL      0.031973
    169 Ca1        -2.1540   -0.0710   -0.2230 Ca        1 MOL      1.668318
    170 O24        -4.0330   -0.7290    1.5940 oh        1 MOL     -0.856211
    171 H77        -3.5940   -0.7110    2.4370 ho        1 MOL      0.419142
    172 H78        -4.9600   -0.5950    1.8000 ho        1 MOL      0.419142
@<TRIPOS>BOND
     1    1    2 1   
     2    1    4 1   
     3    1    5 1   
     4    1    6 1   
     5    2    3 2   
     6    2    7 1   
     7    7    8 1   
     8    7   15 1   
     9    8    9 1   
    10    8   11 1   
    11    8   16 1   
    12    9   10 2   
    13    9   19 1   
    14   11   12 1   
    15   11   17 1   
    16   11   18 1   
    17   12   13 1   
    18   12   14 1   
    19   19   20 1   
    20   19   24 1   
    21   20   21 1   
    22   20   23 1   
    23   20   25 1   
    24   21   22 2   
    25   21   29 1   
    26   23   26 1   
    27   23   27 1   
    28   23   28 1   
    29   29   30 1   
    30   29   37 1   
    31   30   31 1   
    32   30   33 1   
    33   30   38 1   
    34   31   32 2   
    35   31   41 1   
    36   33   34 1   
    37   33   39 1   
    38   33   40 1   
    39   34   35 1   
    40   34   36 1   
    41   41   42 1   
    42   41   45 1   
    43   42   43 1   
    44   42   46 1   
    45   42   47 1   
    46   43   44 2   
    47   43   48 1   
    48   48   49 1   
    49   48   56 1   
    50   49   50 1   
    51   49   52 1   
    52   49   57 1   
    53   50   51 2   
    54   50   62 1   
    55   52   53 1   
    56   52   58 1   
    57   52   59 1   
    58   53   54 1   
    59   53   55 2   
    60   54   60 1   
    61   54   61 1   
    62   62   63 1   
    63   62   66 1   
    64   63   64 1   
    65   63   67 1   
    66   63   68 1   
    67   64   65 2   
    68   64   69 1   
    69   69   70 1   
    70   69   76 1   
    71   70   71 1   
    72   70   73 1   
    73   70   77 1   
    74   71   72 2   
    75   71   83 1   
    76   73   74 1   
    77   73   75 1   
    78   73   78 1   
    79   74   80 1   
    80   74   81 1   
    81   74   82 1   
    82   75   79 1   
    83   83   84 1   
    84   83   91 1   
    85   84   85 1   
    86   84   87 1   
    87   84   92 1   
    88   85   86 2   
    89   85  102 1   
    90   87   88 1   
    91   87   89 1   
    92   87   93 1   
    93   88   90 1   
    94   88   94 1   
    95   88   95 1   
    96   89   96 1   
    97   89   97 1   
    98   89   98 1   
    99   90   99 1   
   100   90  100 1   
   101   90  101 1   
   102  102  103 1   
   103  102  110 1   
   104  103  104 1   
   105  103  106 1   
   106  103  111 1   
   107  104  105 2   
   108  104  114 1   
   109  106  107 1   
   110  106  112 1   
   111  106  113 1   
   112  107  108 1   
   113  107  109 1   
   114  114  115 1   
   115  114  125 1   
   116  115  116 1   
   117  115  118 1   
   118  115  126 1   
   119  116  117 2   
   120  116  134 1   
   121  118  119 1   
   122  118  127 1   
   123  118  128 1   
   124  119  120 ar  
   125  119  121 ar  
   126  120  122 ar  
   127  120  129 1   
   128  121  123 ar  
   129  121  130 1   
   130  122  124 ar  
   131  122  131 1   
   132  123  124 ar  
   133  123  132 1   
   134  124  133 1   
   135  134  135 1   
   136  134  140 1   
   137  135  136 1   
   138  135  138 1   
   139  135  141 1   
   140  136  137 2   
   141  136  148 1   
   142  138  139 1   
   143  138  142 1   
   144  138  143 1   
   145  139  140 1   
   146  139  144 1   
   147  139  145 1   
   148  140  146 1   
   149  140  147 1   
   150  148  149 1   
   151  148  157 1   
   152  149  150 1   
   153  149  152 1   
   154  149  158 1   
   155  150  151 2   
   156  150  163 1   
   157  152  153 1   
   158  152  159 1   
   159  152  160 1   
   160  153  154 1   
   161  153  161 1   
   162  153  162 1   
   163  154  155 1   
   164  154  156 1   
   165  163  164 1   
   166  163  168 1   
   167  164  165 1   
   168  164  166 1   
   169  164  167 1   
   170  170  171 1   
   171  170  172 1   
@<TRIPOS>SUBSTRUCTURE
     1 MOL         1 TEMP              0 ****  ****    0 ROOT
