@<TRIPOS>MOLECULE
MOL
  175   173     1     0     0
SMALL
resp


@<TRIPOS>ATOM
      1 C1         -1.0140    3.9570    5.6330 c3        1 MOL     -0.350195
      2 C2         -1.2480    3.4490    4.2060 c         1 MOL      0.828552
      3 O1         -0.4380    3.6860    3.3230 o         1 MOL     -0.623932
      4 H1         -1.0690    3.1210    6.3300 hc        1 MOL      0.081003
      5 H2         -0.0300    4.4200    5.6980 hc        1 MOL      0.081003
      6 H3         -1.7790    4.6910    5.8880 hc        1 MOL      0.081003
      7 N1         -2.4020    2.9200    3.7770 n         1 MOL     -0.689484
      8 C3         -2.7750    2.5270    2.3770 c3        1 MOL      0.459841
      9 C4         -3.1000    3.7140    1.4450 c         1 MOL      0.421640
     10 O2         -3.7760    4.5950    1.9120 o         1 MOL     -0.580208
     11 C5         -3.9090    1.5250    2.4680 c3        1 MOL     -0.203900
     12 C6         -4.3110    0.7930    1.1820 c         1 MOL      0.811824
     13 O3         -5.2890   -0.0290    1.2970 o         1 MOL     -0.773868
     14 O4         -3.7680    1.0590    0.0760 o         1 MOL     -0.773868
     15 H4         -3.0990    2.9000    4.5090 hn        1 MOL      0.280260
     16 H5         -1.9070    2.0310    1.9440 h1        1 MOL     -0.116681
     17 H6         -4.7450    2.0760    2.8920 hc        1 MOL      0.018796
     18 H7         -3.6150    0.8240    3.2570 hc        1 MOL      0.018796
     19 N2         -2.5260    3.9180    0.2230 n         1 MOL     -0.166108
     20 C7         -2.8360    5.1120   -0.5650 c3        1 MOL      0.056752
     21 C8         -4.0880    4.8180   -1.4530 c         1 MOL      0.480939
     22 O5         -4.4640    5.6720   -2.2320 o         1 MOL     -0.554422
     23 C9         -1.5840    5.6040   -1.2670 c3        1 MOL     -0.088335
     24 H8         -1.7070    3.4140   -0.0650 hn        1 MOL      0.180155
     25 H9         -3.0640    5.8890    0.1590 h1        1 MOL      0.051595
     26 H10        -0.9290    4.7960   -1.5850 hc        1 MOL      0.034400
     27 H11        -1.8220    6.2610   -2.1150 hc        1 MOL      0.034400
     28 H12        -0.9970    6.2770   -0.6370 hc        1 MOL      0.034400
     29 N3         -4.6810    3.6040   -1.6260 n         1 MOL     -0.496002
     30 C10        -5.6250    3.1610   -2.6980 c3        1 MOL      0.251242
     31 C11        -6.7260    2.1640   -2.1860 c         1 MOL      0.251423
     32 O6         -7.4070    1.5270   -3.0470 o         1 MOL     -0.496432
     33 C12        -4.8500    2.6400   -3.8880 c3        1 MOL     -0.211572
     34 C13        -3.8390    1.5800   -3.3910 c         1 MOL      0.809993
     35 O7         -2.6430    1.7870   -3.1110 o         1 MOL     -0.777361
     36 O8         -4.3150    0.5620   -2.9650 o         1 MOL     -0.777361
     37 H13        -4.1940    2.7970   -1.2640 hn        1 MOL      0.251541
     38 H14        -6.1540    4.0790   -2.9500 h1        1 MOL      0.055701
     39 H15        -4.2970    3.3830   -4.4530 hc        1 MOL      0.038872
     40 H16        -5.5360    2.1940   -4.6030 hc        1 MOL      0.038872
     41 N4         -7.0230    2.0190   -0.8800 n         1 MOL     -0.110882
     42 C14        -8.1210    1.2990   -0.3410 c3        1 MOL     -0.372578
     43 C15        -8.0930   -0.1930   -0.4930 c         1 MOL      0.729760
     44 O9         -9.0660   -0.8110   -0.1480 o         1 MOL     -0.635070
     45 H17        -6.5310    2.4960   -0.1460 hn        1 MOL      0.205389
     46 H18        -9.0880    1.5670   -0.7640 h1        1 MOL      0.134123
     47 H19        -8.0700    1.4890    0.7370 h1        1 MOL      0.134123
     48 N5         -6.9910   -0.8310   -1.0060 n         1 MOL     -0.476003
     49 C16        -6.8830   -2.3060   -1.2780 c3        1 MOL     -0.109021
     50 C17        -6.6050   -3.1740    0.0060 c         1 MOL      0.546553
     51 O10        -6.3170   -4.3390   -0.0900 o         1 MOL     -0.576603
     52 C18        -6.0500   -2.5780   -2.4480 c3        1 MOL     -0.059244
     53 C19        -4.5360   -2.6760   -2.1680 c         1 MOL      0.436144
     54 N6         -3.9050   -3.5390   -2.8410 n         1 MOL     -0.648219
     55 O11        -3.8900   -1.9890   -1.3550 o         1 MOL     -0.333393
     56 H20        -6.1180   -0.3320   -1.1050 hn        1 MOL      0.447857
     57 H21        -7.8950   -2.6210   -1.5490 h1        1 MOL      0.117215
     58 H22        -6.2830   -1.9140   -3.2850 hc        1 MOL      0.056505
     59 H23        -6.3060   -3.5810   -2.7850 hc        1 MOL      0.056505
     60 H24        -4.4600   -4.2170   -3.3360 hn        1 MOL      0.313546
     61 H25        -2.9190   -3.7450   -2.7540 hn        1 MOL      0.313546
     62 N7         -6.7040   -2.5770    1.1290 n         1 MOL     -0.325952
     63 C20        -6.5220   -3.1970    2.4020 c3        1 MOL     -0.018425
     64 C21        -5.1060   -3.7250    2.6340 c         1 MOL      0.431510
     65 O12        -4.7900   -4.5730    3.4770 o         1 MOL     -0.549837
     66 H26        -6.9370   -1.6010    1.1870 hn        1 MOL      0.310887
     67 H27        -7.2170   -4.0130    2.6440 h1        1 MOL      0.072693
     68 H28        -6.7810   -2.5050    3.2120 h1        1 MOL      0.072693
     69 N8         -4.0770   -3.2420    1.8420 n         1 MOL     -0.032760
     70 C22        -2.6440   -3.6060    2.0360 c3        1 MOL     -0.422419
     71 C23        -1.7220   -2.4260    1.7380 c         1 MOL      0.718378
     72 O13        -2.0360   -1.5740    0.9260 o         1 MOL     -0.555277
     73 C24        -2.1150   -4.7320    1.1120 c3        1 MOL      0.378839
     74 C25        -2.8980   -5.9980    1.2530 c3        1 MOL     -0.541115
     75 O14        -2.1770   -4.4780   -0.2760 oh        1 MOL     -0.633996
     76 H29        -4.2270   -2.5020    1.1780 hn        1 MOL      0.059036
     77 H30        -2.5960   -3.8380    3.0990 h1        1 MOL      0.187301
     78 H31        -1.0480   -4.9660    1.1040 h1        1 MOL      0.084834
     79 H32        -2.8300   -5.0060   -0.7430 ho        1 MOL      0.397339
     80 H33        -2.4530   -6.7570    0.6000 hc        1 MOL      0.144130
     81 H34        -2.8100   -6.3570    2.2740 hc        1 MOL      0.144130
     82 H35        -3.9630   -5.9100    1.0990 hc        1 MOL      0.144130
     83 N9         -0.5350   -2.4290    2.3350 n         1 MOL     -0.467419
     84 C26         0.5560   -1.6030    1.8700 c3        1 MOL     -0.005378
     85 C27         1.6540   -2.3960    1.1430 c         1 MOL      0.441679
     86 O15         2.0200   -3.5500    1.4030 o         1 MOL     -0.597794
     87 C28         1.1460   -0.8140    3.1060 c3        1 MOL      0.377909
     88 C29         1.4490   -1.7150    4.3370 c3        1 MOL     -0.115757
     89 C30         0.1460    0.3600    3.3060 c3        1 MOL     -0.185750
     90 C31         2.1600   -0.8440    5.3650 c3        1 MOL      0.010385
     91 H36        -0.3840   -3.1510    3.0320 hn        1 MOL      0.212999
     92 H37         0.1600   -0.9180    1.1070 h1        1 MOL      0.028963
     93 H38         2.1160   -0.4230    2.8020 hc        1 MOL     -0.165893
     94 H39         2.1640   -2.5100    4.0890 hc        1 MOL      0.039903
     95 H40         0.5590   -2.1950    4.7510 hc        1 MOL      0.039903
     96 H41        -0.1210    0.9320    2.4220 hc        1 MOL      0.024788
     97 H42        -0.7060   -0.0510    3.8560 hc        1 MOL      0.024788
     98 H43         0.7010    1.0730    3.9270 hc        1 MOL      0.024788
     99 H44         2.6980   -1.5140    6.0260 hc        1 MOL     -0.011617
    100 H45         2.9470   -0.1880    4.9910 hc        1 MOL     -0.011617
    101 H46         1.4350   -0.3240    5.9920 hc        1 MOL     -0.011617
    102 N10         2.1790   -1.8160    0.0350 n         1 MOL     -0.236228
    103 C32         3.2690   -2.2380   -0.8680 c3        1 MOL      0.193828
    104 C33         4.5800   -1.5920   -0.3640 c         1 MOL      0.334396
    105 O16         4.5160   -0.6710    0.4710 o         1 MOL     -0.424724
    106 C34         2.9250   -1.9090   -2.3430 c3        1 MOL     -0.345803
    107 C35         3.8600   -2.4970   -3.3990 c         1 MOL      0.794197
    108 O17         3.7010   -2.2320   -4.6150 o         1 MOL     -0.732198
    109 O18         4.7430   -3.2890   -3.0560 o         1 MOL     -0.732198
    110 H47         1.7960   -0.8890   -0.0850 hn        1 MOL      0.246661
    111 H48         3.4490   -3.3110   -0.8240 h1        1 MOL      0.044187
    112 H49         3.0010   -0.8190   -2.3830 hc        1 MOL      0.060630
    113 H50         1.9530   -2.3170   -2.6310 hc        1 MOL      0.060630
    114 N11         5.7950   -1.9430   -0.8760 n         1 MOL     -0.433720
    115 C36         7.0610   -1.4000   -0.3300 c3        1 MOL      0.299507
    116 C37         7.3160    0.1700   -0.3660 c         1 MOL      0.298929
    117 O19         7.9490    0.6520    0.5400 o         1 MOL     -0.489914
    118 C38         8.2000   -2.1260   -1.0940 c3        1 MOL     -0.301436
    119 C39         9.6550   -1.7510   -0.7490 ca        1 MOL      0.105739
    120 C40        10.3070   -2.2350    0.3990 ca        1 MOL     -0.125030
    121 C41        10.3690   -1.0430   -1.7140 ca        1 MOL     -0.125030
    122 C42        11.7100   -2.0090    0.6160 ca        1 MOL     -0.168003
    123 C43        11.7560   -0.7750   -1.5140 ca        1 MOL     -0.168003
    124 C44        12.3980   -1.2050   -0.3400 ca        1 MOL     -0.058351
    125 H51         5.8390   -2.6760   -1.5560 hn        1 MOL      0.270186
    126 H52         7.1850   -1.8100    0.6790 h1        1 MOL      0.049882
    127 H53         7.9770   -2.0650   -2.1610 hc        1 MOL      0.095733
    128 H54         8.0430   -3.1820   -0.8660 hc        1 MOL      0.095733
    129 H55         9.6900   -2.6660    1.1790 ha        1 MOL      0.109357
    130 H56         9.8530   -0.7850   -2.6300 ha        1 MOL      0.109357
    131 H57        12.1630   -2.3950    1.5170 ha        1 MOL      0.120559
    132 H58        12.2800   -0.2680   -2.3060 ha        1 MOL      0.120559
    133 H59        13.4560   -1.0460   -0.2260 ha        1 MOL      0.079266
    134 N12         6.8750    0.9850   -1.3720 n         1 MOL      0.008312
    135 C45         6.9780    2.4460   -1.3090 c3        1 MOL     -0.036257
    136 C46         6.0380    2.9830   -0.1890 c         1 MOL      0.365451
    137 O20         6.4470    3.9790    0.4410 o         1 MOL     -0.503616
    138 C47         6.6040    3.0800   -2.6560 c3        1 MOL     -0.023003
    139 C48         5.9780    1.9060   -3.3970 c3        1 MOL     -0.064912
    140 C49         6.5700    0.6460   -2.7250 c3        1 MOL     -0.026243
    141 H60         7.9870    2.7560   -1.0600 h1        1 MOL      0.063127
    142 H61         5.9010    3.9020   -2.5660 hc        1 MOL      0.032132
    143 H62         7.4670    3.4570   -3.2090 hc        1 MOL      0.032132
    144 H63         4.8990    2.0450   -3.3830 hc        1 MOL      0.032926
    145 H64         6.2470    1.8610   -4.4570 hc        1 MOL      0.032926
    146 H65         5.8970   -0.2150   -2.7510 h1        1 MOL      0.036365
    147 H66         7.4910    0.3270   -3.2100 h1        1 MOL      0.036365
    148 N13         4.8260    2.3840   -0.0040 n         1 MOL     -0.263907
    149 C50         3.8020    2.7160    1.0590 c3        1 MOL     -0.230170
    150 C51         4.3750    2.3800    2.3980 c         1 MOL      0.482066
    151 O21         4.1810    3.0950    3.3920 o         1 MOL     -0.577710
    152 C52         2.4620    2.0400    0.7800 c3        1 MOL      0.054085
    153 C53         1.6830    2.4740   -0.3900 c3        1 MOL     -0.076149
    154 C54         0.4830    1.4930   -0.6100 c         1 MOL      0.690229
    155 O22        -0.6750    1.7540   -0.1830 o         1 MOL     -0.729059
    156 O23         0.6240    0.3560   -1.1680 o         1 MOL     -0.729059
    157 H67         4.5970    1.5990   -0.5930 hn        1 MOL      0.268622
    158 H68         3.6400    3.7960    1.0380 h1        1 MOL      0.149651
    159 H69         1.8020    2.1980    1.6320 hc        1 MOL      0.099090
    160 H70         2.6130    0.9600    0.7290 hc        1 MOL      0.099090
    161 H71         2.2700    2.3510   -1.3080 hc        1 MOL      0.006086
    162 H72         1.3750    3.5180   -0.3120 hc        1 MOL      0.006086
    163 N14         5.1540    1.2920    2.5270 n         1 MOL      0.027177
    164 C55         5.9390    0.8980    3.7230 c3        1 MOL     -0.197710
    165 H73         5.2760    0.4460    4.4600 h1        1 MOL      0.077351
    166 H74         6.7060    0.1780    3.4350 h1        1 MOL      0.077351
    167 H75         6.4120    1.7800    4.1550 h1        1 MOL      0.077351
    168 H76         5.2310    0.6770    1.7240 hn        1 MOL      0.031069
    169 Ca1        -2.0340   -0.0470   -1.3640 Ca        1 MOL      1.740664
    170 O24        -0.9350   -2.5400   -1.5820 oh        1 MOL     -0.864369
    171 H77        -1.4040   -3.1780   -1.0340 ho        1 MOL      0.412307
    172 H78        -0.4140   -3.0750   -2.1760 ho        1 MOL      0.412307
    173 O25        -1.3460   -0.8870   -3.7860 oh        1 MOL     -0.864369
    174 H79        -0.7680   -1.6410   -3.9130 ho        1 MOL      0.412307
    175 H80        -1.4120   -0.4800   -4.6460 ho        1 MOL      0.412307
@<TRIPOS>BOND
     1    1    2 1   
     2    1    4 1   
     3    1    5 1   
     4    1    6 1   
     5    2    3 2   
     6    2    7 1   
     7    7    8 1   
     8    7   15 1   
     9    8    9 1   
    10    8   11 1   
    11    8   16 1   
    12    9   10 2   
    13    9   19 1   
    14   11   12 1   
    15   11   17 1   
    16   11   18 1   
    17   12   13 1   
    18   12   14 1   
    19   19   20 1   
    20   19   24 1   
    21   20   21 1   
    22   20   23 1   
    23   20   25 1   
    24   21   22 2   
    25   21   29 1   
    26   23   26 1   
    27   23   27 1   
    28   23   28 1   
    29   29   30 1   
    30   29   37 1   
    31   30   31 1   
    32   30   33 1   
    33   30   38 1   
    34   31   32 2   
    35   31   41 1   
    36   33   34 1   
    37   33   39 1   
    38   33   40 1   
    39   34   35 1   
    40   34   36 1   
    41   41   42 1   
    42   41   45 1   
    43   42   43 1   
    44   42   46 1   
    45   42   47 1   
    46   43   44 2   
    47   43   48 1   
    48   48   49 1   
    49   48   56 1   
    50   49   50 1   
    51   49   52 1   
    52   49   57 1   
    53   50   51 2   
    54   50   62 1   
    55   52   53 1   
    56   52   58 1   
    57   52   59 1   
    58   53   54 1   
    59   53   55 2   
    60   54   60 1   
    61   54   61 1   
    62   62   63 1   
    63   62   66 1   
    64   63   64 1   
    65   63   67 1   
    66   63   68 1   
    67   64   65 2   
    68   64   69 1   
    69   69   70 1   
    70   69   76 1   
    71   70   71 1   
    72   70   73 1   
    73   70   77 1   
    74   71   72 2   
    75   71   83 1   
    76   73   74 1   
    77   73   75 1   
    78   73   78 1   
    79   74   80 1   
    80   74   81 1   
    81   74   82 1   
    82   75   79 1   
    83   83   84 1   
    84   83   91 1   
    85   84   85 1   
    86   84   87 1   
    87   84   92 1   
    88   85   86 2   
    89   85  102 1   
    90   87   88 1   
    91   87   89 1   
    92   87   93 1   
    93   88   90 1   
    94   88   94 1   
    95   88   95 1   
    96   89   96 1   
    97   89   97 1   
    98   89   98 1   
    99   90   99 1   
   100   90  100 1   
   101   90  101 1   
   102  102  103 1   
   103  102  110 1   
   104  103  104 1   
   105  103  106 1   
   106  103  111 1   
   107  104  105 2   
   108  104  114 1   
   109  106  107 1   
   110  106  112 1   
   111  106  113 1   
   112  107  108 1   
   113  107  109 1   
   114  114  115 1   
   115  114  125 1   
   116  115  116 1   
   117  115  118 1   
   118  115  126 1   
   119  116  117 2   
   120  116  134 1   
   121  118  119 1   
   122  118  127 1   
   123  118  128 1   
   124  119  120 ar  
   125  119  121 ar  
   126  120  122 ar  
   127  120  129 1   
   128  121  123 ar  
   129  121  130 1   
   130  122  124 ar  
   131  122  131 1   
   132  123  124 ar  
   133  123  132 1   
   134  124  133 1   
   135  134  135 1   
   136  134  140 1   
   137  135  136 1   
   138  135  138 1   
   139  135  141 1   
   140  136  137 2   
   141  136  148 1   
   142  138  139 1   
   143  138  142 1   
   144  138  143 1   
   145  139  140 1   
   146  139  144 1   
   147  139  145 1   
   148  140  146 1   
   149  140  147 1   
   150  148  149 1   
   151  148  157 1   
   152  149  150 1   
   153  149  152 1   
   154  149  158 1   
   155  150  151 2   
   156  150  163 1   
   157  152  153 1   
   158  152  159 1   
   159  152  160 1   
   160  153  154 1   
   161  153  161 1   
   162  153  162 1   
   163  154  155 1   
   164  154  156 1   
   165  163  164 1   
   166  163  168 1   
   167  164  165 1   
   168  164  166 1   
   169  164  167 1   
   170  170  171 1   
   171  170  172 1   
   172  173  174 1   
   173  173  175 1   
@<TRIPOS>SUBSTRUCTURE
     1 MOL         1 TEMP              0 ****  ****    0 ROOT
