@<TRIPOS>MOLECULE
MOL
  189   185     1     0     0
SMALL
resp


@<TRIPOS>ATOM
      1 C1         -1.3220    1.6610    6.7610 c3        1 MOL     -0.338187
      2 C2         -1.2990    1.3470    5.2090 c         1 MOL      0.677153
      3 O1         -0.2210    1.5560    4.6030 o         1 MOL     -0.614529
      4 H1         -1.2260    2.7350    6.9150 hc        1 MOL      0.087019
      5 H2         -2.2640    1.3150    7.1870 hc        1 MOL      0.087019
      6 H3         -0.4920    1.1480    7.2470 hc        1 MOL      0.087019
      7 N1         -2.4110    1.0200    4.6120 n         1 MOL     -0.565006
      8 C3         -2.6890    1.0250    3.1320 c3        1 MOL      0.027536
      9 C4         -2.8470    2.5400    2.7520 c         1 MOL      0.674843
     10 O2         -3.8550    3.1050    3.1640 o         1 MOL     -0.570413
     11 C5         -3.8220    0.1050    2.8460 c3        1 MOL     -0.176847
     12 C6         -4.2330    0.1010    1.3170 c         1 MOL      0.777900
     13 O3         -3.4620    0.6190    0.5010 o         1 MOL     -0.696649
     14 O4         -5.3030   -0.4590    0.9560 o         1 MOL     -0.696649
     15 H4         -3.1970    0.7780    5.2000 hn        1 MOL      0.337694
     16 H5         -1.7870    0.6850    2.6150 h1        1 MOL      0.000268
     17 H6         -4.6720    0.3530    3.4690 hc        1 MOL      0.039149
     18 H7         -3.4720   -0.8950    3.1320 hc        1 MOL      0.039149
     19 N2         -1.8160    3.0530    2.0910 n         1 MOL     -0.286861
     20 C7         -1.6830    4.4670    1.7300 c3        1 MOL     -0.355345
     21 C8         -2.4840    4.8980    0.5280 c         1 MOL      0.647282
     22 O5         -2.8130    6.0580    0.3890 o         1 MOL     -0.609794
     23 C9         -0.1760    4.7970    1.5220 c3        1 MOL      0.163961
     24 C10         0.0910    6.2590    1.0920 c3        1 MOL     -0.123896
     25 C11         1.6550    6.4520    1.0010 c3        1 MOL     -0.044313
     26 C12         1.8920    8.0250    0.7870 c3        1 MOL      0.043474
     27 N3          3.2950    8.3520    0.5070 n4        1 MOL     -0.340508
     28 H8         -1.1840    2.3580    1.7020 hn        1 MOL      0.222633
     29 H9         -2.1460    5.0700    2.5140 h1        1 MOL      0.153839
     30 H10         0.3270    4.0580    0.9030 hc        1 MOL      0.040837
     31 H11         0.2610    4.5670    2.4990 hc        1 MOL      0.040837
     32 H12        -0.2940    6.9570    1.8380 hc        1 MOL      0.063020
     33 H13        -0.2190    6.4370    0.0600 hc        1 MOL      0.063020
     34 H14         2.0810    5.9310    0.1430 hc        1 MOL      0.029174
     35 H15         2.0240    6.1380    1.9780 hc        1 MOL      0.029174
     36 H16         1.5260    8.5170    1.6850 hx        1 MOL      0.085449
     37 H17         1.2370    8.2890   -0.0460 hx        1 MOL      0.085449
     38 H18         3.3670    9.3180    0.2180 hn        1 MOL      0.318778
     39 H19         3.8900    8.2500    1.3160 hn        1 MOL      0.318778
     40 H20         3.7030    7.6830   -0.1390 hn        1 MOL      0.318778
     41 N4         -2.8310    3.9770   -0.3930 n         1 MOL     -0.346077
     42 C13        -3.7360    4.2920   -1.5580 c3        1 MOL      0.048860
     43 C14        -5.1450    3.6450   -1.4240 c         1 MOL      0.400899
     44 O6         -6.0500    4.0710   -2.1610 o         1 MOL     -0.542114
     45 C15        -3.0790    4.1030   -2.9690 c3        1 MOL     -0.356952
     46 C16        -2.2710    2.8330   -3.1060 c         1 MOL      0.866725
     47 O7         -1.5390    2.6910   -4.0540 o         1 MOL     -0.719252
     48 O8         -2.3630    1.8890   -2.2800 o         1 MOL     -0.719252
     49 H21        -2.5910    3.0220   -0.1670 hn        1 MOL      0.109363
     50 H22        -3.9200    5.3590   -1.5770 h1        1 MOL      0.119343
     51 H23        -2.4190    4.9490   -3.1860 hc        1 MOL      0.098612
     52 H24        -3.8160    4.0470   -3.7630 hc        1 MOL      0.098612
     53 N5         -5.3700    2.8330   -0.4250 n         1 MOL     -0.121899
     54 C17        -6.6940    2.2400   -0.1660 c3        1 MOL     -0.278771
     55 C18        -7.1640    1.1190   -1.0580 c         1 MOL      0.623844
     56 O9         -8.3790    0.9330   -1.1820 o         1 MOL     -0.602289
     57 H25        -4.6450    2.5600    0.2210 hn        1 MOL      0.169712
     58 H26        -7.3750    3.0940   -0.2290 h1        1 MOL      0.127525
     59 H27        -6.7520    1.8470    0.8460 h1        1 MOL      0.127525
     60 N6         -6.3210    0.3260   -1.7180 n         1 MOL     -0.215093
     61 C19        -6.7130   -0.7360   -2.6270 c3        1 MOL     -0.180917
     62 C20        -6.8990   -2.1650   -2.0480 c         1 MOL      0.423759
     63 O10        -7.3890   -3.0500   -2.7080 o         1 MOL     -0.516468
     64 C21        -5.6720   -0.8570   -3.7960 c3        1 MOL     -0.126242
     65 C22        -4.1370   -1.0630   -3.4060 c         1 MOL      0.708194
     66 O11        -3.6790   -0.7480   -2.2710 o         1 MOL     -0.667340
     67 O12        -3.3810   -1.4570   -4.3320 o         1 MOL     -0.667340
     68 H28        -5.3500    0.3450   -1.4180 hn        1 MOL      0.157073
     69 H29        -7.5430   -0.4020   -3.2620 h1        1 MOL      0.163170
     70 H30        -5.7550    0.0070   -4.4560 hc        1 MOL      0.055819
     71 H31        -6.0220   -1.6570   -4.4480 hc        1 MOL      0.055819
     72 N7         -6.5570   -2.3180   -0.7750 n         1 MOL     -0.105760
     73 C23        -6.6530   -3.4690    0.0460 c3        1 MOL     -0.231287
     74 C24        -5.4860   -4.3460    0.2770 c         1 MOL      0.587168
     75 O13        -5.6310   -5.4530    0.7540 o         1 MOL     -0.568653
     76 H32        -6.0640   -1.5340   -0.3680 hn        1 MOL      0.207198
     77 H33        -7.4090   -4.1420   -0.3580 h1        1 MOL      0.105272
     78 H34        -7.0080   -3.1330    1.0210 h1        1 MOL      0.105272
     79 N8         -4.2590   -3.9340   -0.0910 n         1 MOL     -0.231897
     80 C25        -3.0190   -4.6200    0.2020 c3        1 MOL     -0.266517
     81 C26        -1.9110   -3.6410    0.6700 c         1 MOL      0.683136
     82 O14        -1.9360   -2.4650    0.1880 o         1 MOL     -0.708796
     83 C27        -2.4750   -5.4970   -0.9810 c3        1 MOL      0.479871
     84 C28        -3.3080   -6.7590   -1.2280 c3        1 MOL     -0.489504
     85 O15        -2.5490   -4.8010   -2.1790 oh        1 MOL     -0.607225
     86 H35        -4.0990   -3.0100   -0.4650 hn        1 MOL      0.201322
     87 H36        -3.1030   -5.4170    0.9430 h1        1 MOL      0.103105
     88 H37        -1.4400   -5.7570   -0.7630 h1        1 MOL     -0.047588
     89 H38        -2.1170   -3.9520   -2.1140 ho        1 MOL      0.365664
     90 H39        -3.5650   -7.1300   -0.2420 hc        1 MOL      0.137510
     91 H40        -4.2800   -6.5620   -1.6720 hc        1 MOL      0.137510
     92 H41        -2.8350   -7.5270   -1.8520 hc        1 MOL      0.137510
     93 N9         -0.8940   -4.0520    1.3340 n         1 MOL     -0.503806
     94 C29         0.2580   -3.2450    1.7870 c3        1 MOL      0.204211
     95 C30         1.4580   -3.7660    1.0100 c         1 MOL      0.486480
     96 O16         1.6380   -4.9930    0.8320 o         1 MOL     -0.576692
     97 C31         0.4780   -3.3120    3.3190 c3        1 MOL     -0.035229
     98 C32        -0.7890   -2.6030    3.9370 c3        1 MOL      0.308716
     99 C33         1.8190   -2.6660    3.8420 c3        1 MOL     -0.389940
    100 C34        -0.9590   -2.7900    5.4590 c3        1 MOL     -0.450378
    101 H42        -0.8490   -4.9660    1.7660 hn        1 MOL      0.285285
    102 H43         0.1380   -2.1850    1.5260 h1        1 MOL     -0.015091
    103 H44         0.4800   -4.3680    3.5920 hc        1 MOL      0.023071
    104 H45        -1.5960   -3.1280    3.4430 hc        1 MOL     -0.026246
    105 H46        -0.7910   -1.5450    3.6860 hc        1 MOL     -0.026246
    106 H47         1.6980   -1.5870    3.7360 hc        1 MOL      0.114952
    107 H48         1.9100   -2.8820    4.9010 hc        1 MOL      0.114952
    108 H49         2.6990   -2.9540    3.2690 hc        1 MOL      0.114952
    109 H50        -0.7840   -3.8140    5.7880 hc        1 MOL      0.102637
    110 H51        -0.2480   -2.1220    5.9360 hc        1 MOL      0.102637
    111 H52        -1.9840   -2.5780    5.7570 hc        1 MOL      0.102637
    112 N10         2.3190   -2.8830    0.5460 n         1 MOL     -0.054696
    113 C35         3.3550   -3.1530   -0.4510 c3        1 MOL     -0.023075
    114 C36         4.7780   -2.9650    0.0830 c         1 MOL      0.247189
    115 O17         4.9930   -2.4210    1.1850 o         1 MOL     -0.340559
    116 C37         3.1600   -2.3020   -1.7140 c3        1 MOL      0.289936
    117 C38         1.8190   -2.5590   -2.4610 c3        1 MOL     -0.361027
    118 O18         3.1880   -0.9550   -1.3610 oh        1 MOL     -0.549055
    119 H53         2.1320   -1.9040    0.7270 hn        1 MOL     -0.022282
    120 H54         3.3310   -4.1820   -0.7900 h1        1 MOL      0.082096
    121 H55         4.0110   -2.3570   -2.4010 h1        1 MOL      0.006718
    122 H56         2.3490   -0.8220   -0.9180 ho        1 MOL      0.316295
    123 H57         1.9110   -3.4330   -3.1100 hc        1 MOL      0.103504
    124 H58         1.1070   -2.8450   -1.6820 hc        1 MOL      0.103504
    125 H59         1.4280   -1.6420   -2.8990 hc        1 MOL      0.103504
    126 N11         5.8200   -3.2020   -0.7430 n         1 MOL     -0.175233
    127 C39         7.2240   -2.7790   -0.5660 c3        1 MOL     -0.244829
    128 C40         7.2800   -1.2640   -0.2330 c         1 MOL      0.557542
    129 O19         8.2120   -0.9090    0.4410 o         1 MOL     -0.522158
    130 C41         8.0940   -3.0980   -1.8150 c3        1 MOL      0.397069
    131 C42         8.4160   -4.5440   -2.1230 c3        1 MOL     -0.396839
    132 O20         7.6510   -2.5290   -3.0630 oh        1 MOL     -0.677307
    133 H60         5.6030   -3.7990   -1.5270 hn        1 MOL      0.231983
    134 H61         7.6800   -3.2100    0.3270 h1        1 MOL      0.157125
    135 H62         9.0570   -2.6000   -1.6720 h1        1 MOL      0.019367
    136 H63         8.3450   -2.3030   -3.6820 ho        1 MOL      0.419785
    137 H64         9.1210   -4.6750   -2.9460 hc        1 MOL      0.111453
    138 H65         8.7200   -4.9810   -1.1760 hc        1 MOL      0.111453
    139 H66         7.4990   -5.0030   -2.5000 hc        1 MOL      0.111453
    140 N12         6.3750   -0.4320   -0.7810 n         1 MOL     -0.427468
    141 C43         6.4330    1.0880   -0.7140 c3        1 MOL     -0.024560
    142 C44         5.7680    1.6310    0.5680 c         1 MOL      0.541580
    143 O21         5.6960    2.8400    0.7480 o         1 MOL     -0.593302
    144 C45         5.7420    1.5520   -1.9730 c3        1 MOL     -0.202440
    145 C46         6.6730    1.8260   -3.1680 c3        1 MOL      0.046613
    146 C47         5.9000    2.6810   -4.2320 c3        1 MOL      0.127604
    147 C48         6.5310    2.7090   -5.6420 c3        1 MOL     -0.122597
    148 N13         7.9350    3.2570   -5.6340 n4        1 MOL     -0.192374
    149 H67         5.6480   -0.7600   -1.4030 hn        1 MOL      0.296876
    150 H68         7.4710    1.3970   -0.6470 h1        1 MOL      0.111325
    151 H69         5.2400    2.4700   -1.6690 hc        1 MOL      0.114870
    152 H70         5.0320    0.8250   -2.3480 hc        1 MOL      0.114870
    153 H71         7.0320    0.8920   -3.6020 hc        1 MOL     -0.007381
    154 H72         7.5820    2.3510   -2.8720 hc        1 MOL     -0.007381
    155 H73         5.9880    3.7150   -3.9080 hc        1 MOL     -0.006116
    156 H74         4.8590    2.3780   -4.2240 hc        1 MOL     -0.006116
    157 H75         5.9120    3.3460   -6.2640 hx        1 MOL      0.125849
    158 H76         6.4770    1.6850   -6.0090 hx        1 MOL      0.125849
    159 H77         8.5910    2.7390   -5.0760 hn        1 MOL      0.250418
    160 H78         8.3380    3.3100   -6.5620 hn        1 MOL      0.250418
    161 H79         8.0900    4.2070   -5.3260 hn        1 MOL      0.250418
    162 N14         5.1670    0.7490    1.3700 n         1 MOL     -0.157204
    163 C49         4.2230    0.9510    2.4490 c3        1 MOL     -0.167568
    164 C50         4.6090    0.1290    3.6640 c         1 MOL      0.473968
    165 O22         4.3560    0.6350    4.7680 o         1 MOL     -0.535233
    166 C51         2.8000    0.5870    1.9720 c3        1 MOL      0.082172
    167 C52         2.1980    1.5220    0.9130 c3        1 MOL      0.081487
    168 C53         0.9290    0.7440    0.5010 c         1 MOL      0.570920
    169 O23         0.9810   -0.4100   -0.0020 o         1 MOL     -0.608978
    170 O24        -0.1960    1.3450    0.6010 o         1 MOL     -0.608978
    171 H80         5.3050   -0.2210    1.1250 hn        1 MOL     -0.023035
    172 H81         4.2860    2.0090    2.6980 h1        1 MOL      0.130115
    173 H82         2.1290    0.5910    2.8330 hc        1 MOL      0.070867
    174 H83         2.8050   -0.4410    1.5880 hc        1 MOL      0.070867
    175 H84         2.8220    1.4970    0.0230 hc        1 MOL     -0.044830
    176 H85         2.0760    2.5350    1.2930 hc        1 MOL     -0.044830
    177 N15         5.2880   -1.0240    3.5570 n         1 MOL     -0.262937
    178 C54         5.5770   -1.9700    4.6790 c3        1 MOL     -0.134963
    179 H86         5.3970   -2.9930    4.3460 h1        1 MOL      0.079620
    180 H87         6.6180   -1.8660    4.9830 h1        1 MOL      0.079620
    181 H88         4.9270   -1.7430    5.5230 h1        1 MOL      0.079620
    182 H89         5.5270   -1.3470    2.6290 hn        1 MOL      0.246512
    183 Ca1        -1.6070   -0.1390   -1.0450 Ca        1 MOL      1.749895
    184 O25        -1.1090   -1.8000   -3.0830 oh        1 MOL     -0.897746
    185 H90        -0.4960   -2.2070   -3.6970 ho        1 MOL      0.408305
    186 H91        -1.9470   -1.8030   -3.5470 ho        1 MOL      0.408305
    187 O26         0.3720    0.9750   -2.5580 oh        1 MOL     -0.897746
    188 H92         1.1800    0.7230   -3.0010 ho        1 MOL      0.408305
    189 H93        -0.0800    1.5370   -3.1880 ho        1 MOL      0.408305
@<TRIPOS>BOND
     1    1    2 1   
     2    1    4 1   
     3    1    5 1   
     4    1    6 1   
     5    2    3 2   
     6    2    7 1   
     7    7    8 1   
     8    7   15 1   
     9    8    9 1   
    10    8   11 1   
    11    8   16 1   
    12    9   10 2   
    13    9   19 1   
    14   11   12 1   
    15   11   17 1   
    16   11   18 1   
    17   12   13 1   
    18   12   14 1   
    19   19   20 1   
    20   19   28 1   
    21   20   21 1   
    22   20   23 1   
    23   20   29 1   
    24   21   22 2   
    25   21   41 1   
    26   23   24 1   
    27   23   30 1   
    28   23   31 1   
    29   24   25 1   
    30   24   32 1   
    31   24   33 1   
    32   25   26 1   
    33   25   34 1   
    34   25   35 1   
    35   26   27 1   
    36   26   36 1   
    37   26   37 1   
    38   27   38 1   
    39   27   39 1   
    40   27   40 1   
    41   41   42 1   
    42   41   49 1   
    43   42   43 1   
    44   42   45 1   
    45   42   50 1   
    46   43   44 2   
    47   43   53 1   
    48   45   46 1   
    49   45   51 1   
    50   45   52 1   
    51   46   47 1   
    52   46   48 1   
    53   53   54 1   
    54   53   57 1   
    55   54   55 1   
    56   54   58 1   
    57   54   59 1   
    58   55   56 2   
    59   55   60 1   
    60   60   61 1   
    61   60   68 1   
    62   61   62 1   
    63   61   64 1   
    64   61   69 1   
    65   62   63 2   
    66   62   72 1   
    67   64   65 1   
    68   64   70 1   
    69   64   71 1   
    70   65   66 1   
    71   65   67 1   
    72   72   73 1   
    73   72   76 1   
    74   73   74 1   
    75   73   77 1   
    76   73   78 1   
    77   74   75 2   
    78   74   79 1   
    79   79   80 1   
    80   79   86 1   
    81   80   81 1   
    82   80   83 1   
    83   80   87 1   
    84   81   82 2   
    85   81   93 1   
    86   83   84 1   
    87   83   85 1   
    88   83   88 1   
    89   84   90 1   
    90   84   91 1   
    91   84   92 1   
    92   85   89 1   
    93   93   94 1   
    94   93  101 1   
    95   94   95 1   
    96   94   97 1   
    97   94  102 1   
    98   95   96 2   
    99   95  112 1   
   100   97   98 1   
   101   97   99 1   
   102   97  103 1   
   103   98  100 1   
   104   98  104 1   
   105   98  105 1   
   106   99  106 1   
   107   99  107 1   
   108   99  108 1   
   109  100  109 1   
   110  100  110 1   
   111  100  111 1   
   112  112  113 1   
   113  112  119 1   
   114  113  114 1   
   115  113  116 1   
   116  113  120 1   
   117  114  115 2   
   118  114  126 1   
   119  116  117 1   
   120  116  118 1   
   121  116  121 1   
   122  117  123 1   
   123  117  124 1   
   124  117  125 1   
   125  118  122 1   
   126  126  127 1   
   127  126  133 1   
   128  127  128 1   
   129  127  130 1   
   130  127  134 1   
   131  128  129 2   
   132  128  140 1   
   133  130  131 1   
   134  130  132 1   
   135  130  135 1   
   136  131  137 1   
   137  131  138 1   
   138  131  139 1   
   139  132  136 1   
   140  140  141 1   
   141  140  149 1   
   142  141  142 1   
   143  141  144 1   
   144  141  150 1   
   145  142  143 2   
   146  142  162 1   
   147  144  145 1   
   148  144  151 1   
   149  144  152 1   
   150  145  146 1   
   151  145  153 1   
   152  145  154 1   
   153  146  147 1   
   154  146  155 1   
   155  146  156 1   
   156  147  148 1   
   157  147  157 1   
   158  147  158 1   
   159  148  159 1   
   160  148  160 1   
   161  148  161 1   
   162  162  163 1   
   163  162  171 1   
   164  163  164 1   
   165  163  166 1   
   166  163  172 1   
   167  164  165 2   
   168  164  177 1   
   169  166  167 1   
   170  166  173 1   
   171  166  174 1   
   172  167  168 1   
   173  167  175 1   
   174  167  176 1   
   175  168  169 1   
   176  168  170 1   
   177  177  178 1   
   178  177  182 1   
   179  178  179 1   
   180  178  180 1   
   181  178  181 1   
   182  184  185 1   
   183  184  186 1   
   184  187  188 1   
   185  187  189 1   
@<TRIPOS>SUBSTRUCTURE
     1 MOL         1 TEMP              0 ****  ****    0 ROOT
