@<TRIPOS>MOLECULE
MOL
  172   171     1     0     0
SMALL
resp


@<TRIPOS>ATOM
      1 C1          0.5780    4.2850    5.6310 c3        1 MOL     -0.380517
      2 C2         -0.0240    4.0510    4.2450 c         1 MOL      0.653730
      3 O1          0.6950    4.2390    3.2550 o         1 MOL     -0.539217
      4 H1          0.8040    5.3430    5.7550 hc        1 MOL      0.097415
      5 H2         -0.1360    3.9750    6.3940 hc        1 MOL      0.097415
      6 H3          1.4950    3.7040    5.7320 hc        1 MOL      0.097415
      7 N1         -1.2880    3.6290    4.0660 n         1 MOL     -0.565834
      8 C3         -1.9200    3.4300    2.7610 c3        1 MOL      0.131116
      9 C4         -2.0420    4.6750    1.8690 c         1 MOL      0.654818
     10 O2         -2.2670    5.8320    2.2910 o         1 MOL     -0.574371
     11 C5         -3.2560    2.7390    2.9230 c3        1 MOL     -0.371781
     12 C6         -4.0170    2.5060    1.6370 c         1 MOL      0.735246
     13 O3         -3.3420    1.9540    0.7410 o         1 MOL     -0.631599
     14 O4         -5.1750    3.0150    1.5310 o         1 MOL     -0.631599
     15 H4         -1.8480    3.3930    4.8760 hn        1 MOL      0.313525
     16 H5         -1.3030    2.6590    2.2960 h1        1 MOL      0.106287
     17 H6         -3.8160    3.3720    3.5950 hc        1 MOL      0.057442
     18 H7         -3.1010    1.7800    3.4320 hc        1 MOL      0.057442
     19 N2         -1.9950    4.4470    0.5340 n         1 MOL     -0.750908
     20 C7         -2.6170    5.4340   -0.3460 c3        1 MOL      0.605263
     21 C8         -3.4750    5.0740   -1.6010 c         1 MOL      0.359084
     22 O5         -3.6890    5.8880   -2.4600 o         1 MOL     -0.547994
     23 C9         -1.5130    6.3920   -0.7950 c3        1 MOL     -0.303623
     24 H8         -1.8270    3.5360    0.1330 hn        1 MOL      0.415306
     25 H9         -3.2740    6.0910    0.2250 h1        1 MOL     -0.032510
     26 H10        -2.0760    7.2300   -1.2210 hc        1 MOL      0.049950
     27 H11        -1.0220    6.8170    0.0770 hc        1 MOL      0.049950
     28 H12        -0.8200    5.9340   -1.5090 hc        1 MOL      0.049950
     29 N3         -4.0340    3.8670   -1.6410 n         1 MOL     -0.317374
     30 C10        -4.9250    3.3700   -2.7190 c3        1 MOL      0.302933
     31 C11        -6.1400    2.5600   -2.2120 c         1 MOL      0.244278
     32 O6         -7.0550    2.3690   -3.0310 o         1 MOL     -0.558333
     33 C12        -4.0200    2.4690   -3.5880 c3        1 MOL     -0.368247
     34 C13        -3.3490    1.2940   -2.8550 c         1 MOL      0.875087
     35 O7         -2.2030    1.0060   -3.0410 o         1 MOL     -0.722296
     36 O8         -4.0090    0.5960   -2.0650 o         1 MOL     -0.722296
     37 H13        -3.8140    3.2130   -0.9070 hn        1 MOL      0.068021
     38 H14        -5.3330    4.2240   -3.2620 h1        1 MOL      0.042991
     39 H15        -3.2840    3.1010   -4.0850 hc        1 MOL      0.071561
     40 H16        -4.7270    2.0430   -4.3020 hc        1 MOL      0.071561
     41 N4         -6.2110    2.2440   -0.9600 n         1 MOL     -0.016362
     42 C14        -7.4090    1.5160   -0.4030 c3        1 MOL     -0.113426
     43 C15        -7.4970    0.0390   -0.7020 c         1 MOL      0.392964
     44 O9         -8.5630   -0.5250   -0.4580 o         1 MOL     -0.592195
     45 H17        -5.4960    2.6100   -0.3420 hn        1 MOL      0.050017
     46 H18        -8.2690    2.0600   -0.7860 h1        1 MOL      0.094982
     47 H19        -7.4640    1.7400    0.6590 h1        1 MOL      0.094982
     48 N5         -6.4710   -0.5560   -1.2660 n         1 MOL      0.002113
     49 C16        -6.5020   -1.9910   -1.6350 c3        1 MOL     -0.269373
     50 C17        -6.2970   -3.1120   -0.5750 c         1 MOL      0.553724
     51 O10        -6.2290   -4.3640   -0.8450 o         1 MOL     -0.550072
     52 C18        -5.4650   -2.1220   -2.7780 c3        1 MOL      0.020968
     53 C19        -3.9450   -2.2560   -2.3550 c         1 MOL      0.428117
     54 N6         -3.0350   -2.2910   -3.2770 n         1 MOL     -0.563796
     55 O11        -3.5370   -2.3020   -1.1730 o         1 MOL     -0.542990
     56 H20        -5.6550    0.0130   -1.4300 hn        1 MOL      0.104814
     57 H21        -7.4260   -2.3320   -2.0810 h1        1 MOL      0.159084
     58 H22        -5.4690   -1.2580   -3.4530 hc        1 MOL      0.030802
     59 H23        -5.7270   -2.9110   -3.4810 hc        1 MOL      0.030802
     60 H24        -3.3080   -2.0280   -4.2200 hn        1 MOL      0.318507
     61 H25        -2.0620   -2.4590   -3.0760 hn        1 MOL      0.318507
     62 N7         -6.1990   -2.6990    0.6840 n         1 MOL     -0.308797
     63 C20        -6.1850   -3.5650    1.8980 c3        1 MOL     -0.273790
     64 C21        -4.8340   -4.3350    2.0430 c         1 MOL      0.565986
     65 O12        -4.7580   -5.2480    2.8560 o         1 MOL     -0.560156
     66 H26        -6.0420   -1.7350    0.9630 hn        1 MOL      0.295997
     67 H27        -7.0590   -4.2060    1.8480 h1        1 MOL      0.128901
     68 H28        -6.2500   -2.9580    2.8060 h1        1 MOL      0.128901
     69 N8         -3.8180   -3.9580    1.2210 n         1 MOL     -0.312976
     70 C22        -2.4710   -4.5610    1.1440 c3        1 MOL     -0.000806
     71 C23        -1.3120   -3.5710    1.1330 c         1 MOL      0.326547
     72 O13        -1.4300   -2.4870    0.5560 o         1 MOL     -0.441221
     73 C24        -2.1460   -5.5870    0.0160 c3        1 MOL      0.510187
     74 C25        -3.1040   -6.8050    0.0560 c3        1 MOL     -0.610418
     75 O14        -2.2090   -4.9710   -1.2920 oh        1 MOL     -0.606613
     76 H29        -4.0680   -3.3890    0.4260 hn        1 MOL      0.277343
     77 H30        -2.4370   -5.0350    2.1200 h1        1 MOL      0.016645
     78 H31        -1.1190   -5.8660    0.2470 h1        1 MOL     -0.039718
     79 H32        -2.0130   -4.0450   -1.1980 ho        1 MOL      0.379705
     80 H33        -3.0910   -7.2860    1.0320 hc        1 MOL      0.156875
     81 H34        -4.1460   -6.5360   -0.0890 hc        1 MOL      0.156875
     82 H35        -2.7300   -7.4430   -0.7480 hc        1 MOL      0.156875
     83 N9         -0.1660   -3.9640    1.6540 n         1 MOL     -0.350234
     84 C26         1.0500   -3.1390    1.7850 c3        1 MOL     -0.000319
     85 C27         1.7470   -3.2620    0.4170 c         1 MOL      0.459578
     86 O15         2.1030   -4.3850   -0.0240 o         1 MOL     -0.600973
     87 C28         1.9940   -3.3340    2.9830 c3        1 MOL      0.203550
     88 C29         1.3420   -3.6910    4.2960 c3        1 MOL      0.175955
     89 C30         2.9280   -2.0830    3.0450 c3        1 MOL     -0.263594
     90 C31         2.1580   -3.5290    5.6000 c3        1 MOL     -0.279926
     91 H36        -0.1600   -4.8760    2.1020 hn        1 MOL      0.247843
     92 H37         0.7850   -2.0840    1.8780 h1        1 MOL      0.071325
     93 H38         2.7150   -4.1230    2.7550 hc        1 MOL     -0.063179
     94 H39         0.9520   -4.7030    4.2110 hc        1 MOL     -0.052967
     95 H40         0.5020   -3.0020    4.3540 hc        1 MOL     -0.052967
     96 H41         2.3180   -1.1970    3.2420 hc        1 MOL      0.047396
     97 H42         3.7140   -2.0650    3.7910 hc        1 MOL      0.047396
     98 H43         3.2320   -2.0210    2.0020 hc        1 MOL      0.047396
     99 H44         2.9930   -4.2350    5.5790 hc        1 MOL      0.064651
    100 H45         2.4270   -2.4730    5.6170 hc        1 MOL      0.064651
    101 H46         1.5560   -3.7470    6.4850 hc        1 MOL      0.064651
    102 N10         1.8480   -2.1770   -0.2970 n         1 MOL     -0.048413
    103 C32         2.6460   -1.9740   -1.4420 c3        1 MOL      0.244374
    104 C33         4.0040   -1.3690   -1.0480 c         1 MOL      0.232047
    105 O16         4.2280   -0.9550    0.0850 o         1 MOL     -0.274987
    106 C34         1.9350   -1.0330   -2.4320 c3        1 MOL     -0.416278
    107 C35         0.4880   -1.4080   -2.6230 c         1 MOL      0.787989
    108 O17         0.1690   -1.9240   -3.6710 o         1 MOL     -0.683898
    109 O18        -0.3510   -1.3730   -1.6940 o         1 MOL     -0.683898
    110 H47         1.2990   -1.3810   -0.0020 hn        1 MOL      0.012333
    111 H48         2.8210   -2.9360   -1.9100 h1        1 MOL      0.025485
    112 H49         2.6040   -0.9730   -3.2920 hc        1 MOL      0.100778
    113 H50         1.8790   -0.0300   -2.0080 hc        1 MOL      0.100778
    114 N11         4.9650   -1.3880   -1.9810 n         1 MOL     -0.581569
    115 C36         6.3960   -1.0520   -1.6320 c3        1 MOL      0.449262
    116 C37         6.7740    0.3810   -1.0380 c         1 MOL      0.308250
    117 O19         7.3000    0.3730    0.0910 o         1 MOL     -0.487004
    118 C38         7.2960   -1.4660   -2.7720 c3        1 MOL     -0.276592
    119 C39         8.7170   -1.4300   -2.3390 ca        1 MOL      0.207590
    120 C40         9.5190   -0.4040   -2.8920 ca        1 MOL     -0.266158
    121 C41         9.2320   -2.4330   -1.4540 ca        1 MOL     -0.266158
    122 C42        10.8670   -0.2820   -2.5040 ca        1 MOL     -0.025170
    123 C43        10.5990   -2.3740   -1.1910 ca        1 MOL     -0.025170
    124 C44        11.3960   -1.3300   -1.6870 ca        1 MOL     -0.211879
    125 H51         4.5920   -1.7740   -2.8330 hn        1 MOL      0.329000
    126 H52         6.6570   -1.7150   -0.8060 h1        1 MOL      0.017418
    127 H53         7.1780   -0.7640   -3.5960 hc        1 MOL      0.064972
    128 H54         7.1140   -2.5180   -3.0250 hc        1 MOL      0.064972
    129 H55         9.0850    0.3370   -3.5380 ha        1 MOL      0.149800
    130 H56         8.5620   -3.1910   -1.0680 ha        1 MOL      0.149800
    131 H57        11.4990    0.5210   -2.8650 ha        1 MOL      0.098006
    132 H58        10.9780   -3.1650   -0.5660 ha        1 MOL      0.098006
    133 H59        12.4270   -1.3520   -1.3480 ha        1 MOL      0.114420
    134 N12         6.3540    1.4540   -1.7360 n         1 MOL     -0.138896
    135 C45         6.3250    2.7640   -1.1320 c3        1 MOL      0.075568
    136 C46         5.6800    2.7910    0.2710 c         1 MOL      0.304929
    137 O20         6.1010    3.5950    1.0900 o         1 MOL     -0.495116
    138 C47         5.5680    3.6230   -2.1740 c3        1 MOL     -0.208581
    139 C48         4.6480    2.6450   -2.9230 c3        1 MOL      0.007518
    140 C49         5.6220    1.4740   -3.0150 c3        1 MOL     -0.013659
    141 H60         7.3620    3.0860   -1.0390 h1        1 MOL      0.062694
    142 H61         5.0760    4.5230   -1.8020 hc        1 MOL      0.080289
    143 H62         6.4020    3.9250   -2.8110 hc        1 MOL      0.080289
    144 H63         3.7390    2.4070   -2.3780 hc        1 MOL      0.046538
    145 H64         4.4200    2.9320   -3.9530 hc        1 MOL      0.046538
    146 H65         5.0470    0.5760   -3.2290 h1        1 MOL      0.019368
    147 H66         6.4090    1.5800   -3.7620 h1        1 MOL      0.019368
    148 N13         4.7370    1.8560    0.6020 n         1 MOL     -0.074518
    149 C50         3.9260    1.8780    1.8230 c3        1 MOL     -0.171380
    150 C51         4.7100    1.1550    2.9500 c         1 MOL      0.455502
    151 O21         4.7830    1.6780    4.0350 o         1 MOL     -0.546938
    152 C52         2.4880    1.2740    1.5890 c3        1 MOL      0.006687
    153 C53         1.6900    2.0860    0.6740 c3        1 MOL      0.082053
    154 C54         0.2740    1.4730    0.4350 c         1 MOL      0.568190
    155 O22        -0.5420    1.9190   -0.3970 o         1 MOL     -0.755114
    156 O23        -0.0070    0.3650    0.9590 o         1 MOL     -0.755114
    157 H67         4.5790    1.1230   -0.0760 hn        1 MOL      0.176189
    158 H68         3.6610    2.9040    2.0610 h1        1 MOL      0.123947
    159 H69         1.9860    1.1270    2.5460 hc        1 MOL      0.041496
    160 H70         2.5340    0.2900    1.1260 hc        1 MOL      0.041496
    161 H71         2.2320    2.3330   -0.2470 hc        1 MOL     -0.004223
    162 H72         1.4340    3.0530    1.1010 hc        1 MOL     -0.004223
    163 N14         5.4750    0.1320    2.5490 n         1 MOL     -0.028947
    164 C55         6.3660   -0.5880    3.3910 c3        1 MOL     -0.189100
    165 H73         6.7300    0.0700    4.1800 h1        1 MOL      0.064735
    166 H74         5.8420   -1.4340    3.8370 h1        1 MOL      0.064735
    167 H75         7.2090   -0.9500    2.8040 h1        1 MOL      0.064735
    168 H76         5.2990   -0.2860    1.6430 hn        1 MOL      0.081124
    169 Ca1        -2.1700   -0.1180   -0.3310 Ca        1 MOL      1.754986
    170 O24        -3.8540   -0.7110    1.7570 oh        1 MOL     -1.032479
    171 H77        -4.6470   -0.7060    2.2900 ho        1 MOL      0.461587
    172 H78        -3.1360   -0.6720    2.3950 ho        1 MOL      0.461587
@<TRIPOS>BOND
     1    1    2 1   
     2    1    4 1   
     3    1    5 1   
     4    1    6 1   
     5    2    3 2   
     6    2    7 1   
     7    7    8 1   
     8    7   15 1   
     9    8    9 1   
    10    8   11 1   
    11    8   16 1   
    12    9   10 2   
    13    9   19 1   
    14   11   12 1   
    15   11   17 1   
    16   11   18 1   
    17   12   13 1   
    18   12   14 1   
    19   19   20 1   
    20   19   24 1   
    21   20   21 1   
    22   20   23 1   
    23   20   25 1   
    24   21   22 2   
    25   21   29 1   
    26   23   26 1   
    27   23   27 1   
    28   23   28 1   
    29   29   30 1   
    30   29   37 1   
    31   30   31 1   
    32   30   33 1   
    33   30   38 1   
    34   31   32 2   
    35   31   41 1   
    36   33   34 1   
    37   33   39 1   
    38   33   40 1   
    39   34   35 1   
    40   34   36 1   
    41   41   42 1   
    42   41   45 1   
    43   42   43 1   
    44   42   46 1   
    45   42   47 1   
    46   43   44 2   
    47   43   48 1   
    48   48   49 1   
    49   48   56 1   
    50   49   50 1   
    51   49   52 1   
    52   49   57 1   
    53   50   51 2   
    54   50   62 1   
    55   52   53 1   
    56   52   58 1   
    57   52   59 1   
    58   53   54 1   
    59   53   55 2   
    60   54   60 1   
    61   54   61 1   
    62   62   63 1   
    63   62   66 1   
    64   63   64 1   
    65   63   67 1   
    66   63   68 1   
    67   64   65 2   
    68   64   69 1   
    69   69   70 1   
    70   69   76 1   
    71   70   71 1   
    72   70   73 1   
    73   70   77 1   
    74   71   72 2   
    75   71   83 1   
    76   73   74 1   
    77   73   75 1   
    78   73   78 1   
    79   74   80 1   
    80   74   81 1   
    81   74   82 1   
    82   75   79 1   
    83   83   84 1   
    84   83   91 1   
    85   84   85 1   
    86   84   87 1   
    87   84   92 1   
    88   85   86 2   
    89   85  102 1   
    90   87   88 1   
    91   87   89 1   
    92   87   93 1   
    93   88   90 1   
    94   88   94 1   
    95   88   95 1   
    96   89   96 1   
    97   89   97 1   
    98   89   98 1   
    99   90   99 1   
   100   90  100 1   
   101   90  101 1   
   102  102  103 1   
   103  102  110 1   
   104  103  104 1   
   105  103  106 1   
   106  103  111 1   
   107  104  105 2   
   108  104  114 1   
   109  106  107 1   
   110  106  112 1   
   111  106  113 1   
   112  107  108 1   
   113  107  109 1   
   114  114  115 1   
   115  114  125 1   
   116  115  116 1   
   117  115  118 1   
   118  115  126 1   
   119  116  117 2   
   120  116  134 1   
   121  118  119 1   
   122  118  127 1   
   123  118  128 1   
   124  119  120 ar  
   125  119  121 ar  
   126  120  122 ar  
   127  120  129 1   
   128  121  123 ar  
   129  121  130 1   
   130  122  124 ar  
   131  122  131 1   
   132  123  124 ar  
   133  123  132 1   
   134  124  133 1   
   135  134  135 1   
   136  134  140 1   
   137  135  136 1   
   138  135  138 1   
   139  135  141 1   
   140  136  137 2   
   141  136  148 1   
   142  138  139 1   
   143  138  142 1   
   144  138  143 1   
   145  139  140 1   
   146  139  144 1   
   147  139  145 1   
   148  140  146 1   
   149  140  147 1   
   150  148  149 1   
   151  148  157 1   
   152  149  150 1   
   153  149  152 1   
   154  149  158 1   
   155  150  151 2   
   156  150  163 1   
   157  152  153 1   
   158  152  159 1   
   159  152  160 1   
   160  153  154 1   
   161  153  161 1   
   162  153  162 1   
   163  154  155 1   
   164  154  156 1   
   165  163  164 1   
   166  163  168 1   
   167  164  165 1   
   168  164  166 1   
   169  164  167 1   
   170  170  171 1   
   171  170  172 1   
@<TRIPOS>SUBSTRUCTURE
     1 MOL         1 TEMP              0 ****  ****    0 ROOT
