@<TRIPOS>MOLECULE
MOL
  176   174     1     0     0
SMALL
resp


@<TRIPOS>ATOM
      1 C1          1.5120    2.7160    6.0580 c3        1 MOL     -0.298889
      2 C2          0.9470    2.5640    4.6420 c         1 MOL      0.807376
      3 O1          1.7120    2.5390    3.7110 o         1 MOL     -0.627203
      4 H1          2.4330    3.2980    6.0200 hc        1 MOL      0.073829
      5 H2          0.7850    3.2280    6.6880 hc        1 MOL      0.073829
      6 H3          1.7240    1.7300    6.4720 hc        1 MOL      0.073829
      7 N1         -0.3230    2.3100    4.3790 n         1 MOL     -0.720916
      8 C3         -0.9550    2.1530    3.1020 c3        1 MOL     -0.001136
      9 C4         -1.0670    3.4950    2.3350 c         1 MOL      0.647867
     10 O2         -1.6740    4.5000    2.7240 o         1 MOL     -0.575714
     11 C5         -2.3000    1.4750    3.3570 c3        1 MOL     -0.048921
     12 C6         -2.8660    0.9420    2.0900 c         1 MOL      0.783340
     13 O3         -2.3860    1.2140    0.9980 o         1 MOL     -0.778456
     14 O4         -3.8530    0.2360    2.1110 o         1 MOL     -0.778456
     15 H4         -0.9550    2.3850    5.1600 hn        1 MOL      0.338543
     16 H5         -0.3200    1.4620    2.5460 h1        1 MOL      0.083850
     17 H6         -2.9370    2.2170    3.8450 hc        1 MOL      0.026047
     18 H7         -2.1910    0.5830    3.9800 hc        1 MOL      0.026047
     19 N2         -0.4410    3.5420    1.1590 n         1 MOL     -0.176041
     20 C7         -0.2290    4.7330    0.3360 c3        1 MOL     -0.416159
     21 C8         -1.5310    5.1960   -0.3160 c         1 MOL      0.711881
     22 O5         -1.6780    6.4070   -0.5640 o         1 MOL     -0.590715
     23 C9          0.8630    4.3740   -0.6530 c3        1 MOL      0.166751
     24 C10         1.6590    5.5460   -1.1600 c3        1 MOL     -0.001812
     25 C11         2.6710    5.0910   -2.1760 c3        1 MOL      0.146140
     26 C12         3.5080    6.2400   -2.7060 c3        1 MOL     -0.105633
     27 N3          2.9330    7.1860   -3.7160 n4        1 MOL     -0.379237
     28 H8          0.0280    2.6800    0.9220 hn        1 MOL      0.174299
     29 H9          0.0040    5.5640    1.0090 h1        1 MOL      0.147718
     30 H10         0.3970    3.8810   -1.5120 hc        1 MOL      0.036761
     31 H11         1.5910    3.7250   -0.1620 hc        1 MOL      0.036761
     32 H12         2.2040    6.0560   -0.3740 hc        1 MOL     -0.001729
     33 H13         0.9750    6.2040   -1.7020 hc        1 MOL     -0.001729
     34 H14         2.1900    4.5840   -3.0090 hc        1 MOL     -0.011627
     35 H15         3.3180    4.3460   -1.7120 hc        1 MOL     -0.011627
     36 H16         4.3910    5.7350   -3.0960 hx        1 MOL      0.118352
     37 H17         3.8650    6.8040   -1.8370 hx        1 MOL      0.118352
     38 H18         3.6530    7.6710   -4.2190 hn        1 MOL      0.338716
     39 H19         2.5090    6.6360   -4.4560 hn        1 MOL      0.338716
     40 H20         2.2610    7.8120   -3.2970 hn        1 MOL      0.338716
     41 N4         -2.4320    4.2580   -0.5490 n         1 MOL     -0.582978
     42 C13        -3.5720    4.5730   -1.3590 c3        1 MOL      0.190076
     43 C14        -4.8510    4.2210   -0.6510 c         1 MOL      0.469305
     44 O6         -5.8740    4.8400   -0.9470 o         1 MOL     -0.576165
     45 C15        -3.3460    3.8870   -2.7040 c3        1 MOL     -0.178041
     46 C16        -2.8870    2.4510   -2.4890 c         1 MOL      0.653358
     47 O7         -3.5660    1.6420   -1.7520 o         1 MOL     -0.734262
     48 O8         -1.7550    2.0130   -2.8760 o         1 MOL     -0.734262
     49 H21        -2.3350    3.3400   -0.1480 hn        1 MOL      0.393367
     50 H22        -3.7220    5.6290   -1.5670 h1        1 MOL      0.061417
     51 H23        -2.5830    4.4620   -3.2310 hc        1 MOL      0.048501
     52 H24        -4.2760    4.0310   -3.2690 hc        1 MOL      0.048501
     53 N5         -4.7770    3.3150    0.2820 n         1 MOL     -0.073601
     54 C17        -5.8550    2.8960    1.1570 c3        1 MOL     -0.340591
     55 C18        -6.5570    1.6580    0.6000 c         1 MOL      0.684448
     56 O9         -7.6870    1.4320    1.0850 o         1 MOL     -0.587695
     57 H25        -3.8860    2.8310    0.3390 hn        1 MOL      0.021098
     58 H26        -6.6030    3.6890    1.2190 h1        1 MOL      0.156156
     59 H27        -5.3560    2.7310    2.1110 h1        1 MOL      0.156156
     60 N6         -5.9690    0.9800   -0.4000 n         1 MOL     -0.360350
     61 C19        -6.5550   -0.2460   -0.9690 c3        1 MOL     -0.095913
     62 C20        -6.5670   -1.5420   -0.1570 c         1 MOL      0.414778
     63 O10        -7.2340   -2.5430   -0.5640 o         1 MOL     -0.523774
     64 C21        -6.0960   -0.5000   -2.3820 c3        1 MOL     -0.030477
     65 C22        -4.6890   -1.0650   -2.5260 c         1 MOL      0.491070
     66 N7         -4.2230   -1.3330   -3.7110 n         1 MOL     -0.568524
     67 O11        -4.0100   -1.3790   -1.5490 o         1 MOL     -0.550712
     68 H28        -5.1350    1.3320   -0.8430 hn        1 MOL      0.218719
     69 H29        -7.6310   -0.1010   -1.0430 h1        1 MOL      0.109330
     70 H30        -6.2100    0.4300   -2.9310 hc        1 MOL      0.054186
     71 H31        -6.7800   -1.1540   -2.9340 hc        1 MOL      0.054186
     72 H32        -4.7090   -0.8860   -4.4670 hn        1 MOL      0.294342
     73 H33        -3.2540   -1.6280   -3.7250 hn        1 MOL      0.294342
     74 N8         -5.8980   -1.5070    1.0180 n         1 MOL     -0.145563
     75 C23        -6.1240   -2.4550    2.1750 c3        1 MOL     -0.193486
     76 C24        -4.8560   -3.4030    2.4440 c         1 MOL      0.502351
     77 O12        -4.7650   -4.2530    3.3130 o         1 MOL     -0.566114
     78 H34        -5.4340   -0.6410    1.2540 hn        1 MOL      0.256353
     79 H35        -6.9760   -3.0770    1.8930 h1        1 MOL      0.116805
     80 H36        -6.3540   -1.8900    3.0870 h1        1 MOL      0.116805
     81 N9         -3.7520   -3.2360    1.6910 n         1 MOL     -0.056365
     82 C25        -2.4790   -4.0160    1.7780 c3        1 MOL     -0.179715
     83 C26        -1.3950   -3.1060    1.2690 c         1 MOL      0.545268
     84 O13        -1.5500   -2.2170    0.4190 o         1 MOL     -0.618056
     85 C27        -2.5680   -5.3760    0.9580 c3        1 MOL     -0.004268
     86 C28        -2.9720   -5.1910   -0.4670 ca        1 MOL     -0.046643
     87 C29        -2.0460   -4.9690   -1.5060 ca        1 MOL     -0.112592
     88 C30        -4.4010   -5.1400   -0.6950 ca        1 MOL     -0.112592
     89 C31        -2.5180   -4.8210   -2.8060 ca        1 MOL     -0.307838
     90 C32        -4.8420   -4.9740   -2.0470 ca        1 MOL     -0.307838
     91 C33        -3.8950   -4.8200   -3.0760 ca        1 MOL      0.442463
     92 O14        -4.3080   -4.5800   -4.3450 oh        1 MOL     -0.607656
     93 H37        -3.7270   -2.4910    1.0180 hn        1 MOL      0.119509
     94 H38        -2.2160   -4.3380    2.7880 h1        1 MOL      0.099098
     95 H39        -3.2370   -6.1340    1.3720 hc        1 MOL      0.049745
     96 H40        -1.5890   -5.8520    0.9540 hc        1 MOL      0.049745
     97 H41        -0.9830   -4.8640   -1.3550 ha        1 MOL      0.141965
     98 H42        -4.9900   -5.1720    0.2020 ha        1 MOL      0.141965
     99 H43        -1.8480   -4.6940   -3.6350 ha        1 MOL      0.142657
    100 H44        -5.9000   -4.8350   -2.1900 ha        1 MOL      0.142657
    101 H45        -5.2450   -4.3990   -4.4140 ho        1 MOL      0.428690
    102 N10        -0.1810   -3.3490    1.8230 n         1 MOL     -0.250568
    103 C34         1.1130   -2.7390    1.4880 c3        1 MOL     -0.204186
    104 C35         2.0830   -3.6250    0.7000 c         1 MOL      0.474991
    105 O15         2.2780   -4.8180    1.0340 o         1 MOL     -0.534559
    106 C36         1.7740   -1.9950    2.7220 c3        1 MOL      0.209485
    107 C37         2.4940   -2.9730    3.6820 c3        1 MOL     -0.319714
    108 C38         0.7340   -1.1300    3.4300 c3        1 MOL     -0.280257
    109 C39         3.1510   -2.3520    4.9370 c3        1 MOL     -0.008165
    110 H46        -0.1370   -4.0710    2.5350 hn        1 MOL      0.257778
    111 H47         0.9250   -1.9520    0.7570 h1        1 MOL      0.164871
    112 H48         2.5240   -1.3140    2.3330 hc        1 MOL     -0.064095
    113 H49         3.2680   -3.4630    3.0910 hc        1 MOL      0.100874
    114 H50         1.8570   -3.7840    4.0480 hc        1 MOL      0.100874
    115 H51         1.2030   -0.5840    4.2420 hc        1 MOL      0.099127
    116 H52         0.5110   -0.3390    2.7100 hc        1 MOL      0.099127
    117 H53        -0.1170   -1.7460    3.7160 hc        1 MOL      0.099127
    118 H54         3.7980   -3.0180    5.5090 hc        1 MOL      0.019862
    119 H55         3.7610   -1.5140    4.5760 hc        1 MOL      0.019862
    120 H56         2.3610   -1.9570    5.5780 hc        1 MOL      0.019862
    121 N11         2.8300   -3.0430   -0.2230 n         1 MOL     -0.415956
    122 C40         4.0300   -3.5840   -0.8480 c3        1 MOL      0.243249
    123 C41         5.3570   -2.9390   -0.3470 c         1 MOL      0.448317
    124 O16         5.4130   -1.9810    0.4360 o         1 MOL     -0.409471
    125 C42         3.9080   -3.4560   -2.3530 c3        1 MOL     -0.182680
    126 O17         4.3140   -2.1560   -2.8220 oh        1 MOL     -0.494501
    127 H57         2.6840   -2.0770   -0.4670 hn        1 MOL      0.296672
    128 H58         4.1380   -4.6480   -0.6300 h1        1 MOL      0.037914
    129 H59         2.8830   -3.6210   -2.6950 h1        1 MOL      0.105168
    130 H60         4.5290   -4.2440   -2.7850 h1        1 MOL      0.105168
    131 H61         4.0570   -2.0480   -3.7430 ho        1 MOL      0.396386
    132 N12         6.4840   -3.4660   -0.8550 n         1 MOL     -0.451169
    133 C43         7.8270   -3.0770   -0.5650 c3        1 MOL      0.207628
    134 C44         8.2050   -1.6540   -0.8880 c         1 MOL      0.498110
    135 O18         8.7980   -0.9530   -0.0560 o         1 MOL     -0.539311
    136 C45         8.7060   -4.0210   -1.3690 c3        1 MOL     -0.460290
    137 H62         6.3390   -4.1990   -1.5310 hn        1 MOL      0.284094
    138 H63         7.9500   -3.1840    0.5090 h1        1 MOL      0.075914
    139 H64         9.6500   -3.5400   -1.6330 hc        1 MOL      0.133786
    140 H65         8.9420   -4.8780   -0.7340 hc        1 MOL      0.133786
    141 H66         8.1760   -4.3320   -2.2720 hc        1 MOL      0.133786
    142 N13         7.6500   -1.0900   -1.9510 n         1 MOL     -0.373603
    143 C46         7.6340    0.3770   -2.1180 c3        1 MOL      0.061200
    144 C47         6.8030    1.3380   -1.2300 c         1 MOL      0.438397
    145 O19         7.1990    2.4420   -0.9000 o         1 MOL     -0.515005
    146 C48         7.0600    0.4790   -3.5590 c3        1 MOL     -0.331646
    147 H67         6.9050   -1.6800   -2.3070 hn        1 MOL      0.199324
    148 H68         8.6650    0.7230   -2.0510 h1        1 MOL      0.116939
    149 H69         6.8660    1.5090   -3.8630 hc        1 MOL      0.086811
    150 H70         7.7860    0.0230   -4.2310 hc        1 MOL      0.086811
    151 H71         6.1700   -0.1540   -3.6850 hc        1 MOL      0.086811
    152 N14         5.6710    0.8480   -0.7950 n         1 MOL     -0.219371
    153 C49         4.8280    1.5080    0.1930 c3        1 MOL     -0.118245
    154 C50         5.4570    1.4780    1.6110 c         1 MOL      0.411796
    155 O20         5.3740    2.5450    2.2860 o         1 MOL     -0.541527
    156 C51         3.4390    0.8890    0.2050 c3        1 MOL     -0.082776
    157 C52         2.6190    1.0530   -1.0950 c3        1 MOL      0.247300
    158 C53         1.2680    0.5080   -0.9130 c         1 MOL      0.762944
    159 O21         0.4740    0.9880   -0.1120 o         1 MOL     -0.853494
    160 O22         0.7880   -0.5040   -1.5140 o         1 MOL     -0.853494
    161 H72         5.4950   -0.1390   -0.9190 hn        1 MOL      0.212920
    162 H73         4.8550    2.5680   -0.0550 h1        1 MOL      0.120149
    163 H74         2.8960    1.3350    1.0340 hc        1 MOL      0.112096
    164 H75         3.5780   -0.1860    0.2650 hc        1 MOL      0.112096
    165 H76         3.1040    0.4620   -1.8760 hc        1 MOL     -0.141686
    166 H77         2.5140    2.0810   -1.4590 hc        1 MOL     -0.141686
    167 N15         6.1190    0.4430    2.0170 n         1 MOL      0.011481
    168 C54         6.9980    0.4570    3.1680 c3        1 MOL     -0.398316
    169 H78         7.8450    1.1120    2.9700 h1        1 MOL      0.142286
    170 H79         6.4520    0.8230    4.0380 h1        1 MOL      0.142286
    171 H80         7.3570   -0.5530    3.3630 h1        1 MOL      0.142286
    172 H81         6.0500   -0.3910    1.4450 hn        1 MOL      0.104401
    173 Ca1        -1.7390   -0.1150   -1.1680 Ca        1 MOL      1.797750
    174 O23        -1.2510   -1.4380   -3.5370 oh        1 MOL     -0.824357
    175 H82        -0.6780   -2.1870   -3.4420 ho        1 MOL      0.426584
    176 H83        -1.0160   -1.0460   -4.3700 ho        1 MOL      0.426584
@<TRIPOS>BOND
     1    1    2 1   
     2    1    4 1   
     3    1    5 1   
     4    1    6 1   
     5    2    3 2   
     6    2    7 1   
     7    7    8 1   
     8    7   15 1   
     9    8    9 1   
    10    8   11 1   
    11    8   16 1   
    12    9   10 2   
    13    9   19 1   
    14   11   12 1   
    15   11   17 1   
    16   11   18 1   
    17   12   13 1   
    18   12   14 1   
    19   19   20 1   
    20   19   28 1   
    21   20   21 1   
    22   20   23 1   
    23   20   29 1   
    24   21   22 2   
    25   21   41 1   
    26   23   24 1   
    27   23   30 1   
    28   23   31 1   
    29   24   25 1   
    30   24   32 1   
    31   24   33 1   
    32   25   26 1   
    33   25   34 1   
    34   25   35 1   
    35   26   27 1   
    36   26   36 1   
    37   26   37 1   
    38   27   38 1   
    39   27   39 1   
    40   27   40 1   
    41   41   42 1   
    42   41   49 1   
    43   42   43 1   
    44   42   45 1   
    45   42   50 1   
    46   43   44 2   
    47   43   53 1   
    48   45   46 1   
    49   45   51 1   
    50   45   52 1   
    51   46   47 1   
    52   46   48 1   
    53   53   54 1   
    54   53   57 1   
    55   54   55 1   
    56   54   58 1   
    57   54   59 1   
    58   55   56 2   
    59   55   60 1   
    60   60   61 1   
    61   60   68 1   
    62   61   62 1   
    63   61   64 1   
    64   61   69 1   
    65   62   63 2   
    66   62   74 1   
    67   64   65 1   
    68   64   70 1   
    69   64   71 1   
    70   65   66 1   
    71   65   67 2   
    72   66   72 1   
    73   66   73 1   
    74   74   75 1   
    75   74   78 1   
    76   75   76 1   
    77   75   79 1   
    78   75   80 1   
    79   76   77 2   
    80   76   81 1   
    81   81   82 1   
    82   81   93 1   
    83   82   83 1   
    84   82   85 1   
    85   82   94 1   
    86   83   84 2   
    87   83  102 1   
    88   85   86 1   
    89   85   95 1   
    90   85   96 1   
    91   86   87 ar  
    92   86   88 ar  
    93   87   89 ar  
    94   87   97 1   
    95   88   90 ar  
    96   88   98 1   
    97   89   91 ar  
    98   89   99 1   
    99   90   91 ar  
   100   90  100 1   
   101   91   92 1   
   102   92  101 1   
   103  102  103 1   
   104  102  110 1   
   105  103  104 1   
   106  103  106 1   
   107  103  111 1   
   108  104  105 2   
   109  104  121 1   
   110  106  107 1   
   111  106  108 1   
   112  106  112 1   
   113  107  109 1   
   114  107  113 1   
   115  107  114 1   
   116  108  115 1   
   117  108  116 1   
   118  108  117 1   
   119  109  118 1   
   120  109  119 1   
   121  109  120 1   
   122  121  122 1   
   123  121  127 1   
   124  122  123 1   
   125  122  125 1   
   126  122  128 1   
   127  123  124 2   
   128  123  132 1   
   129  125  126 1   
   130  125  129 1   
   131  125  130 1   
   132  126  131 1   
   133  132  133 1   
   134  132  137 1   
   135  133  134 1   
   136  133  136 1   
   137  133  138 1   
   138  134  135 2   
   139  134  142 1   
   140  136  139 1   
   141  136  140 1   
   142  136  141 1   
   143  142  143 1   
   144  142  147 1   
   145  143  144 1   
   146  143  146 1   
   147  143  148 1   
   148  144  145 2   
   149  144  152 1   
   150  146  149 1   
   151  146  150 1   
   152  146  151 1   
   153  152  153 1   
   154  152  161 1   
   155  153  154 1   
   156  153  156 1   
   157  153  162 1   
   158  154  155 2   
   159  154  167 1   
   160  156  157 1   
   161  156  163 1   
   162  156  164 1   
   163  157  158 1   
   164  157  165 1   
   165  157  166 1   
   166  158  159 1   
   167  158  160 1   
   168  167  168 1   
   169  167  172 1   
   170  168  169 1   
   171  168  170 1   
   172  168  171 1   
   173  174  175 1   
   174  174  176 1   
@<TRIPOS>SUBSTRUCTURE
     1 MOL         1 TEMP              0 ****  ****    0 ROOT
