@<TRIPOS>MOLECULE
MOL
  175   173     1     0     0
SMALL
resp


@<TRIPOS>ATOM
      1 C1          0.4940    3.9940    5.5130 c3        1 MOL     -0.464684
      2 C2         -0.0610    3.9250    4.0540 c         1 MOL      0.724324
      3 O1          0.6870    4.0940    3.1020 o         1 MOL     -0.529363
      4 H1          1.1040    3.1130    5.7120 hc        1 MOL      0.116428
      5 H2          1.1030    4.8910    5.6290 hc        1 MOL      0.116428
      6 H3         -0.3380    4.0250    6.2170 hc        1 MOL      0.116428
      7 N1         -1.4470    3.8270    3.8860 n         1 MOL     -0.670402
      8 C3         -2.1120    3.4950    2.6620 c3        1 MOL      0.262226
      9 C4         -2.1510    4.6000    1.5510 c         1 MOL      0.539065
     10 O2         -2.4750    5.7310    1.8800 o         1 MOL     -0.588473
     11 C5         -3.5670    3.0240    2.9500 c3        1 MOL     -0.079203
     12 C6         -4.4230    2.6690    1.7670 c         1 MOL      0.556718
     13 O3         -5.6130    2.9760    1.6830 o         1 MOL     -0.597659
     14 O4         -3.7870    2.1130    0.8410 o         1 MOL     -0.597659
     15 H4         -1.9950    3.7040    4.7250 hn        1 MOL      0.314775
     16 H5         -1.5080    2.6710    2.2670 h1        1 MOL      0.034927
     17 H6         -4.1220    3.6660    3.6370 hc        1 MOL     -0.021221
     18 H7         -3.3440    2.1030    3.4920 hc        1 MOL     -0.021221
     19 N2         -2.0170    4.2610    0.2370 n         1 MOL     -0.378899
     20 C7         -2.1030    5.1600   -0.9210 c3        1 MOL      0.289066
     21 C8         -3.4770    5.0520   -1.7050 c         1 MOL      0.539376
     22 O5         -3.8270    6.0590   -2.3140 o         1 MOL     -0.593883
     23 C9         -0.8320    5.0540   -1.7350 c3        1 MOL     -0.204958
     24 H8         -1.6620    3.3240    0.0540 hn        1 MOL      0.189728
     25 H9         -2.0650    6.1700   -0.5110 h1        1 MOL     -0.027006
     26 H10        -0.9570    5.6410   -2.6470 hc        1 MOL      0.039604
     27 H11         0.0110    5.3890   -1.1360 hc        1 MOL      0.039604
     28 H12        -0.6170    4.0180   -1.9830 hc        1 MOL      0.039604
     29 N3         -4.1370    3.9310   -1.6010 n         1 MOL     -0.429628
     30 C10        -4.8610    3.3880   -2.7360 c3        1 MOL      0.110963
     31 C11        -6.2120    2.6860   -2.4600 c         1 MOL      0.335561
     32 O6         -7.0590    2.7170   -3.3240 o         1 MOL     -0.519559
     33 C12        -3.8930    2.4250   -3.4590 c3        1 MOL     -0.317563
     34 C13        -3.1370    1.4960   -2.5200 c         1 MOL      0.715315
     35 O7         -3.8720    0.8180   -1.7640 o         1 MOL     -0.706363
     36 O8         -1.8830    1.4350   -2.4980 o         1 MOL     -0.706363
     37 H13        -3.9410    3.3630   -0.7940 hn        1 MOL      0.283297
     38 H14        -5.0650    4.2250   -3.4120 h1        1 MOL      0.076234
     39 H15        -3.1400    3.0000   -3.9940 hc        1 MOL      0.079711
     40 H16        -4.3760    1.7180   -4.1190 hc        1 MOL      0.079711
     41 N4         -6.3710    2.1420   -1.2700 n         1 MOL      0.059573
     42 C14        -7.4300    1.2770   -0.9270 c3        1 MOL     -0.106708
     43 C15        -7.4140    0.0050   -1.7290 c         1 MOL      0.435741
     44 O9         -8.3510   -0.2890   -2.4700 o         1 MOL     -0.560494
     45 H17        -5.6190    2.1670   -0.6000 hn        1 MOL     -0.040352
     46 H18        -8.3430    1.8690   -0.9970 h1        1 MOL      0.044213
     47 H19        -7.3140    0.9050    0.0930 h1        1 MOL      0.044213
     48 N5         -6.3440   -0.7890   -1.5770 n         1 MOL     -0.178767
     49 C16        -6.2150   -2.1430   -2.0920 c3        1 MOL     -0.072336
     50 C17        -6.2290   -3.2440   -0.9690 c         1 MOL      0.370990
     51 O10        -6.1500   -4.4350   -1.2490 o         1 MOL     -0.494556
     52 C18        -4.9910   -2.3720   -3.0330 c3        1 MOL      0.102115
     53 C19        -3.5900   -2.3710   -2.4070 c         1 MOL      0.324608
     54 N6         -2.6180   -2.7610   -3.1960 n         1 MOL     -0.487299
     55 O11        -3.3110   -2.1020   -1.2440 o         1 MOL     -0.455050
     56 H20        -5.6240   -0.5570   -0.9180 hn        1 MOL      0.337881
     57 H21        -7.0550   -2.5080   -2.6880 h1        1 MOL      0.080916
     58 H22        -5.0100   -1.6010   -3.7990 hc        1 MOL      0.010258
     59 H23        -5.1440   -3.3030   -3.5790 hc        1 MOL      0.010258
     60 H24        -2.9250   -3.0550   -4.1090 hn        1 MOL      0.278891
     61 H25        -1.6540   -2.7700   -2.9050 hn        1 MOL      0.278891
     62 N7         -6.2490   -2.7930    0.2900 n         1 MOL     -0.092911
     63 C20        -6.3790   -3.6710    1.4590 c3        1 MOL     -0.311966
     64 C21        -5.0700   -4.3050    1.9040 c         1 MOL      0.610266
     65 O12        -5.1660   -5.2150    2.6710 o         1 MOL     -0.564621
     66 H26        -6.5880   -1.8430    0.3950 hn        1 MOL      0.131049
     67 H27        -7.2090   -4.3700    1.3790 h1        1 MOL      0.124502
     68 H28        -6.5090   -2.8810    2.1990 h1        1 MOL      0.124502
     69 N8         -3.9120   -3.9240    1.2990 n         1 MOL     -0.332607
     70 C22        -2.5180   -4.4730    1.4920 c3        1 MOL     -0.152248
     71 C23        -1.4000   -3.3880    1.5570 c         1 MOL      0.674210
     72 O13        -1.4940   -2.3320    0.8810 o         1 MOL     -0.660890
     73 C24        -2.3170   -5.5510    0.4660 c3        1 MOL      0.640659
     74 C25        -3.2260   -6.6940    0.5150 c3        1 MOL     -0.587094
     75 O14        -2.4320   -5.0170   -0.8140 oh        1 MOL     -0.685374
     76 H29        -4.0890   -3.1950    0.6170 hn        1 MOL      0.131065
     77 H30        -2.6020   -4.9500    2.4660 h1        1 MOL      0.060049
     78 H31        -1.3010   -5.8750    0.7020 h1        1 MOL     -0.079279
     79 H32        -2.4910   -4.0570   -0.8840 ho        1 MOL      0.420350
     80 H33        -4.1470   -6.3730    0.0510 hc        1 MOL      0.148861
     81 H34        -2.8210   -7.4750   -0.1350 hc        1 MOL      0.148861
     82 H35        -3.4140   -7.0600    1.5250 hc        1 MOL      0.148861
     83 N9         -0.3610   -3.6070    2.3140 n         1 MOL     -0.568987
     84 C26         0.8560   -2.8240    2.1140 c3        1 MOL      0.128944
     85 C27         1.4870   -3.2110    0.7320 c         1 MOL      0.411129
     86 O15         1.5650   -4.4370    0.4990 o         1 MOL     -0.553721
     87 C28         1.7500   -2.9900    3.4100 c3        1 MOL      0.039277
     88 C29         1.2820   -1.9560    4.4720 c3        1 MOL      0.137675
     89 C30         3.2630   -2.9440    3.0640 c3        1 MOL     -0.174781
     90 C31         1.9320   -2.0990    5.8240 c3        1 MOL     -0.120497
     91 H36        -0.2800   -4.5210    2.7440 hn        1 MOL      0.289842
     92 H37         0.6090   -1.7750    1.9960 h1        1 MOL      0.091283
     93 H38         1.5780   -3.9270    3.9500 hc        1 MOL      0.010339
     94 H39         0.1900   -1.9430    4.5330 hc        1 MOL     -0.045121
     95 H40         1.5510   -0.9320    4.1930 hc        1 MOL     -0.045121
     96 H41         3.4480   -3.7070    2.3160 hc        1 MOL      0.024457
     97 H42         3.4290   -1.9940    2.5500 hc        1 MOL      0.024457
     98 H43         3.8100   -3.2260    3.9710 hc        1 MOL      0.024457
     99 H44         1.9670   -3.1470    6.1290 hc        1 MOL      0.021774
    100 H45         2.9360   -1.6930    5.7950 hc        1 MOL      0.021774
    101 H46         1.4170   -1.5050    6.5800 hc        1 MOL      0.021774
    102 N10         1.9210   -2.1580    0.0690 n         1 MOL     -0.036098
    103 C32         2.7220   -2.0810   -1.1250 c3        1 MOL     -0.013963
    104 C33         4.1310   -1.5370   -0.7350 c         1 MOL      0.375894
    105 O16         4.3590   -0.9510    0.3310 o         1 MOL     -0.315314
    106 C34         2.0040   -1.2670   -2.1400 c3        1 MOL     -0.147024
    107 C35         0.5670   -1.5680   -2.3260 c         1 MOL      0.717729
    108 O17        -0.2670   -0.9410   -1.6000 o         1 MOL     -0.657953
    109 O18         0.1850   -2.1850   -3.3020 o         1 MOL     -0.657953
    110 H47         1.5960   -1.2680    0.4270 hn        1 MOL      0.049772
    111 H48         2.8210   -3.0730   -1.5490 h1        1 MOL      0.043947
    112 H49         2.4750   -1.2750   -3.1310 hc        1 MOL      0.027306
    113 H50         2.0830   -0.2550   -1.7590 hc        1 MOL      0.027306
    114 N11         5.0750   -1.7080   -1.6150 n         1 MOL     -0.440061
    115 C36         6.4870   -1.4500   -1.4140 c3        1 MOL      0.235550
    116 C37         6.8650   -0.0030   -1.0790 c         1 MOL      0.351729
    117 O19         7.5860    0.1310   -0.0500 o         1 MOL     -0.497006
    118 C38         7.1900   -1.9950   -2.6750 c3        1 MOL     -0.083608
    119 C39         8.6820   -1.6870   -2.8410 ca        1 MOL      0.053793
    120 C40         9.6680   -2.4590   -2.1360 ca        1 MOL     -0.154370
    121 C41         9.1070   -0.5610   -3.4760 ca        1 MOL     -0.154370
    122 C42        10.9500   -1.9850   -1.9280 ca        1 MOL     -0.126291
    123 C43        10.4190   -0.1020   -3.3480 ca        1 MOL     -0.126291
    124 C44        11.3240   -0.7780   -2.5080 ca        1 MOL     -0.076134
    125 H51         4.8710   -2.2220   -2.4530 hn        1 MOL      0.279540
    126 H52         6.8470   -2.1090   -0.6270 h1        1 MOL      0.053479
    127 H53         6.7480   -1.6290   -3.6010 hc        1 MOL      0.026068
    128 H54         7.0200   -3.0740   -2.6410 hc        1 MOL      0.026068
    129 H55         9.3350   -3.3250   -1.5730 ha        1 MOL      0.111721
    130 H56         8.4170    0.0680   -4.0220 ha        1 MOL      0.111721
    131 H57        11.5620   -2.5150   -1.2240 ha        1 MOL      0.116695
    132 H58        10.7430    0.8560   -3.7260 ha        1 MOL      0.116695
    133 H59        12.2820   -0.3290   -2.2890 ha        1 MOL      0.094044
    134 N12         6.3720    1.0710   -1.7250 n         1 MOL     -0.031282
    135 C45         6.4690    2.3990   -1.1900 c3        1 MOL      0.018215
    136 C46         5.9380    2.5810    0.2290 c         1 MOL      0.288350
    137 O20         6.4960    3.4020    0.9850 o         1 MOL     -0.512423
    138 C47         5.8610    3.3130   -2.1810 c3        1 MOL     -0.070390
    139 C48         4.9430    2.4670   -2.9760 c3        1 MOL      0.011210
    140 C49         5.6710    1.1260   -2.9840 c3        1 MOL     -0.042742
    141 H60         7.5180    2.6920   -1.2000 h1        1 MOL      0.046830
    142 H61         5.3500    4.1830   -1.7740 hc        1 MOL      0.049748
    143 H62         6.6200    3.6560   -2.8800 hc        1 MOL      0.049748
    144 H63         4.1380    2.2620   -2.2610 hc        1 MOL      0.020560
    145 H64         4.7020    2.8880   -3.9430 hc        1 MOL      0.020560
    146 H65         4.9190    0.3470   -3.0650 h1        1 MOL      0.024016
    147 H66         6.3870    1.1020   -3.8090 h1        1 MOL      0.024016
    148 N13         4.8190    1.9560    0.6100 n         1 MOL     -0.110260
    149 C50         4.1380    1.9840    1.9450 c3        1 MOL     -0.115957
    150 C51         5.0570    1.1790    2.9650 c         1 MOL      0.473871
    151 O21         5.1590    1.5820    4.0990 o         1 MOL     -0.559281
    152 C52         2.7230    1.4770    1.8750 c3        1 MOL      0.056592
    153 C53         1.8650    2.0170    0.6960 c3        1 MOL     -0.212069
    154 C54         0.4330    1.5060    0.7890 c         1 MOL      0.633409
    155 O22         0.1490    0.6250    1.6070 o         1 MOL     -0.678096
    156 O23        -0.4790    1.9990    0.0440 o         1 MOL     -0.678096
    157 H67         4.4110    1.5250   -0.2140 hn        1 MOL      0.221628
    158 H68         4.2210    3.0120    2.2820 h1        1 MOL      0.112645
    159 H69         2.3750    1.6380    2.8950 hc        1 MOL      0.042753
    160 H70         2.7310    0.3820    1.8120 hc        1 MOL      0.042753
    161 H71         2.3560    1.5980   -0.1820 hc        1 MOL      0.063090
    162 H72         2.1230    3.0710    0.7800 hc        1 MOL      0.063090
    163 N14         5.7540    0.1030    2.5590 n         1 MOL      0.045497
    164 C55         6.7010   -0.5850    3.4220 c3        1 MOL     -0.458000
    165 H73         6.9970   -1.5260    2.9590 h1        1 MOL      0.141971
    166 H74         7.5820    0.0410    3.5670 h1        1 MOL      0.141971
    167 H75         6.2340   -0.7850    4.3870 h1        1 MOL      0.141971
    168 H76         5.7850   -0.0920    1.5590 hn        1 MOL      0.006790
    169 Ca1        -2.0540    0.0650   -0.1090 Ca        1 MOL      1.690742
    170 O24        -2.1570   -0.0240    2.5480 oh        1 MOL     -0.838344
    171 H77        -2.5710   -0.0640    3.4090 ho        1 MOL      0.404365
    172 H78        -1.2310    0.1210    2.7320 ho        1 MOL      0.404365
    173 O25        -4.6390   -0.2590    0.7470 oh        1 MOL     -0.838344
    174 H79        -4.4360    0.6710    0.7970 ho        1 MOL      0.404365
    175 H80        -5.2220   -0.4290    1.4820 ho        1 MOL      0.404365
@<TRIPOS>BOND
     1    1    2 1   
     2    1    4 1   
     3    1    5 1   
     4    1    6 1   
     5    2    3 2   
     6    2    7 1   
     7    7    8 1   
     8    7   15 1   
     9    8    9 1   
    10    8   11 1   
    11    8   16 1   
    12    9   10 2   
    13    9   19 1   
    14   11   12 1   
    15   11   17 1   
    16   11   18 1   
    17   12   13 1   
    18   12   14 1   
    19   19   20 1   
    20   19   24 1   
    21   20   21 1   
    22   20   23 1   
    23   20   25 1   
    24   21   22 2   
    25   21   29 1   
    26   23   26 1   
    27   23   27 1   
    28   23   28 1   
    29   29   30 1   
    30   29   37 1   
    31   30   31 1   
    32   30   33 1   
    33   30   38 1   
    34   31   32 2   
    35   31   41 1   
    36   33   34 1   
    37   33   39 1   
    38   33   40 1   
    39   34   35 1   
    40   34   36 1   
    41   41   42 1   
    42   41   45 1   
    43   42   43 1   
    44   42   46 1   
    45   42   47 1   
    46   43   44 2   
    47   43   48 1   
    48   48   49 1   
    49   48   56 1   
    50   49   50 1   
    51   49   52 1   
    52   49   57 1   
    53   50   51 2   
    54   50   62 1   
    55   52   53 1   
    56   52   58 1   
    57   52   59 1   
    58   53   54 1   
    59   53   55 2   
    60   54   60 1   
    61   54   61 1   
    62   62   63 1   
    63   62   66 1   
    64   63   64 1   
    65   63   67 1   
    66   63   68 1   
    67   64   65 2   
    68   64   69 1   
    69   69   70 1   
    70   69   76 1   
    71   70   71 1   
    72   70   73 1   
    73   70   77 1   
    74   71   72 2   
    75   71   83 1   
    76   73   74 1   
    77   73   75 1   
    78   73   78 1   
    79   74   80 1   
    80   74   81 1   
    81   74   82 1   
    82   75   79 1   
    83   83   84 1   
    84   83   91 1   
    85   84   85 1   
    86   84   87 1   
    87   84   92 1   
    88   85   86 2   
    89   85  102 1   
    90   87   88 1   
    91   87   89 1   
    92   87   93 1   
    93   88   90 1   
    94   88   94 1   
    95   88   95 1   
    96   89   96 1   
    97   89   97 1   
    98   89   98 1   
    99   90   99 1   
   100   90  100 1   
   101   90  101 1   
   102  102  103 1   
   103  102  110 1   
   104  103  104 1   
   105  103  106 1   
   106  103  111 1   
   107  104  105 2   
   108  104  114 1   
   109  106  107 1   
   110  106  112 1   
   111  106  113 1   
   112  107  108 1   
   113  107  109 1   
   114  114  115 1   
   115  114  125 1   
   116  115  116 1   
   117  115  118 1   
   118  115  126 1   
   119  116  117 2   
   120  116  134 1   
   121  118  119 1   
   122  118  127 1   
   123  118  128 1   
   124  119  120 ar  
   125  119  121 ar  
   126  120  122 ar  
   127  120  129 1   
   128  121  123 ar  
   129  121  130 1   
   130  122  124 ar  
   131  122  131 1   
   132  123  124 ar  
   133  123  132 1   
   134  124  133 1   
   135  134  135 1   
   136  134  140 1   
   137  135  136 1   
   138  135  138 1   
   139  135  141 1   
   140  136  137 2   
   141  136  148 1   
   142  138  139 1   
   143  138  142 1   
   144  138  143 1   
   145  139  140 1   
   146  139  144 1   
   147  139  145 1   
   148  140  146 1   
   149  140  147 1   
   150  148  149 1   
   151  148  157 1   
   152  149  150 1   
   153  149  152 1   
   154  149  158 1   
   155  150  151 2   
   156  150  163 1   
   157  152  153 1   
   158  152  159 1   
   159  152  160 1   
   160  153  154 1   
   161  153  161 1   
   162  153  162 1   
   163  154  155 1   
   164  154  156 1   
   165  163  164 1   
   166  163  168 1   
   167  164  165 1   
   168  164  166 1   
   169  164  167 1   
   170  170  171 1   
   171  170  172 1   
   172  173  174 1   
   173  173  175 1   
@<TRIPOS>SUBSTRUCTURE
     1 MOL         1 TEMP              0 ****  ****    0 ROOT
