@<TRIPOS>MOLECULE
MOL
  183   181     1     0     0
SMALL
resp


@<TRIPOS>ATOM
      1 C1         -0.2390    0.9970    6.1390 c3        1 MOL     -0.324967
      2 C2         -0.8090    1.0400    4.6720 c         1 MOL      0.796938
      3 O1         -0.1460    1.7100    3.8800 o         1 MOL     -0.621053
      4 H1         -0.9390    0.4680    6.7840 hc        1 MOL      0.071331
      5 H2          0.7200    0.4780    6.1410 hc        1 MOL      0.071331
      6 H3         -0.1040    2.0140    6.5070 hc        1 MOL      0.071331
      7 N1         -1.9530    0.5370    4.3220 n         1 MOL     -0.701952
      8 C3         -2.5950    0.7200    3.0360 c3        1 MOL      0.296029
      9 C4         -2.9500    2.2450    2.8670 c         1 MOL      0.554617
     10 O2         -3.5540    2.7770    3.7880 o         1 MOL     -0.584076
     11 C5         -3.8350   -0.2040    2.8920 c3        1 MOL     -0.336384
     12 C6         -4.5980    0.1220    1.6010 c         1 MOL      0.660126
     13 O3         -5.8340    0.0020    1.4980 o         1 MOL     -0.624136
     14 O4         -3.8700    0.5730    0.6820 o         1 MOL     -0.624136
     15 H4         -2.4070   -0.0040    5.0440 hn        1 MOL      0.320910
     16 H5         -1.8670    0.4770    2.2740 h1        1 MOL     -0.002498
     17 H6         -4.5710    0.0290    3.6740 hc        1 MOL      0.083764
     18 H7         -3.5430   -1.2410    2.9660 hc        1 MOL      0.083764
     19 N2         -2.7540    2.9330    1.6860 n         1 MOL     -0.299938
     20 C7         -2.8930    4.3750    1.5120 c3        1 MOL     -0.075748
     21 C8         -4.1740    4.6380    0.6660 c         1 MOL      0.650427
     22 O5         -4.9190    5.5940    0.8820 o         1 MOL     -0.627632
     23 C9         -1.5630    5.0040    0.9040 c3        1 MOL      0.372092
     24 C10        -0.3390    4.4650    1.7090 c3        1 MOL      0.021266
     25 C11        -1.7800    6.5650    0.8340 c3        1 MOL     -0.429737
     26 C12         0.9490    5.2420    1.5580 c3        1 MOL     -0.048437
     27 H8         -2.2480    2.4420    0.9620 hn        1 MOL      0.189137
     28 H9         -3.0360    4.9380    2.4350 h1        1 MOL      0.043034
     29 H10        -1.4990    4.6100   -0.1080 hc        1 MOL     -0.084482
     30 H11        -0.1950    3.3930    1.5300 hc        1 MOL      0.011148
     31 H12        -0.6190    4.5710    2.7630 hc        1 MOL      0.011148
     32 H13        -2.7470    6.8480    0.4280 hc        1 MOL      0.083690
     33 H14        -1.7920    6.8640    1.8790 hc        1 MOL      0.083690
     34 H15        -0.9440    6.9560    0.2530 hc        1 MOL      0.083690
     35 H16         1.1360    5.6090    0.5470 hc        1 MOL     -0.004585
     36 H17         0.9770    6.1270    2.1880 hc        1 MOL     -0.004585
     37 H18         1.7990    4.5990    1.7690 hc        1 MOL     -0.004585
     38 N3         -4.6110    3.7650   -0.2790 n         1 MOL     -0.470304
     39 C13        -5.4570    4.1110   -1.4210 c3        1 MOL      0.131071
     40 C14        -6.7280    3.2710   -1.3670 c         1 MOL      0.359757
     41 O6         -7.5870    3.4290   -2.2610 o         1 MOL     -0.571484
     42 C15        -4.6670    3.9090   -2.7040 c3        1 MOL     -0.192511
     43 C16        -3.7900    2.6380   -2.7850 c         1 MOL      0.833532
     44 O7         -2.9940    2.5590   -3.7210 o         1 MOL     -0.713225
     45 O8         -3.9620    1.7260   -1.9160 o         1 MOL     -0.713225
     46 H19        -4.2120    2.8470   -0.3220 hn        1 MOL      0.202228
     47 H20        -5.7900    5.1520   -1.4980 h1        1 MOL      0.089370
     48 H21        -4.0530    4.8080   -2.8440 hc        1 MOL      0.034687
     49 H22        -5.3020    3.8720   -3.5950 hc        1 MOL      0.034687
     50 N4         -7.0260    2.3930   -0.4050 n         1 MOL     -0.144290
     51 C17        -8.3250    1.8090   -0.1060 c3        1 MOL     -0.126329
     52 C18        -8.4570    0.3420   -0.5250 c         1 MOL      0.484683
     53 O9         -9.6200   -0.1280   -0.6930 o         1 MOL     -0.605470
     54 H23        -6.3010    2.3090    0.2900 hn        1 MOL      0.181855
     55 H24        -9.1140    2.4540   -0.4870 h1        1 MOL      0.091226
     56 H25        -8.5020    1.8430    0.9650 h1        1 MOL      0.091226
     57 N5         -7.3860   -0.4280   -0.9420 n         1 MOL     -0.172644
     58 C19        -7.4360   -1.7830   -1.4960 c3        1 MOL     -0.069794
     59 C20        -7.1810   -2.8910   -0.4460 c         1 MOL      0.477571
     60 O10        -7.3000   -4.0960   -0.6480 o         1 MOL     -0.583179
     61 C21        -6.5560   -1.9640   -2.7590 c3        1 MOL     -0.049903
     62 C22        -5.0660   -1.5890   -2.5460 c         1 MOL      0.563161
     63 O11        -4.3590   -0.9650   -3.3840 o         1 MOL     -0.674285
     64 O12        -4.6500   -1.8190   -1.3910 o         1 MOL     -0.674285
     65 H26        -6.5500    0.1260   -0.9680 hn        1 MOL      0.225070
     66 H27        -8.4390   -1.8690   -1.9100 h1        1 MOL      0.100340
     67 H28        -6.9850   -1.4400   -3.6120 hc        1 MOL      0.018147
     68 H29        -6.5910   -3.0270   -3.0020 hc        1 MOL      0.018147
     69 N6         -6.8650   -2.4960    0.7850 n         1 MOL     -0.275405
     70 C23        -6.4650   -3.3580    1.9180 c3        1 MOL     -0.023630
     71 C24        -5.1290   -4.0240    1.7180 c         1 MOL      0.485115
     72 O13        -4.6900   -4.7400    2.6680 o         1 MOL     -0.619382
     73 H30        -6.6010   -1.5280    0.8680 hn        1 MOL      0.140713
     74 H31        -7.1400   -4.1390    2.2650 h1        1 MOL      0.071172
     75 H32        -6.3260   -2.7550    2.8120 h1        1 MOL      0.071172
     76 N7         -4.3060   -3.9070    0.6450 n         1 MOL     -0.226087
     77 C25        -2.9970   -4.5100    0.5390 c3        1 MOL      0.062965
     78 C26        -1.8690   -3.4830    0.6700 c         1 MOL      0.692234
     79 O14        -2.1010   -2.2320    0.4930 o         1 MOL     -0.726893
     80 C27        -2.8870   -5.3320   -0.7560 c3        1 MOL      0.119793
     81 C28        -3.0410   -4.6490   -2.1240 c3        1 MOL     -0.175390
     82 C29        -1.8930   -3.7780   -2.5730 c         1 MOL      0.563784
     83 N8         -0.8500   -4.3150   -3.1690 n         1 MOL     -0.736957
     84 O15        -1.8980   -2.5800   -2.4140 o         1 MOL     -0.501121
     85 H33        -4.6030   -3.2850   -0.1020 hn        1 MOL      0.211183
     86 H34        -2.8470   -5.2150    1.3440 h1        1 MOL      0.048971
     87 H35        -3.5710   -6.1640   -0.5800 hc        1 MOL     -0.053095
     88 H36        -1.8800   -5.7420   -0.7970 hc        1 MOL     -0.053095
     89 H37        -3.9410   -4.0400   -2.0860 hc        1 MOL      0.065424
     90 H38        -3.2120   -5.4090   -2.8840 hc        1 MOL      0.065424
     91 H39        -0.7490   -5.2730   -3.4640 hn        1 MOL      0.345199
     92 H40        -0.1240   -3.7210   -3.5320 hn        1 MOL      0.345199
     93 N9         -0.6700   -3.8910    1.0160 n         1 MOL     -0.508240
     94 C30         0.4170   -3.0390    1.4800 c3        1 MOL      0.026927
     95 C31         1.6310   -3.3040    0.6040 c         1 MOL      0.460201
     96 O16         2.4420   -4.1740    0.8860 o         1 MOL     -0.582870
     97 C32         0.7890   -3.2120    2.9560 c3        1 MOL      0.256390
     98 C33         1.7000   -2.1110    3.3270 c3        1 MOL     -0.262504
     99 C34        -0.4540   -3.2160    3.8340 c3        1 MOL     -0.262504
    100 H41        -0.5500   -4.8780    1.1960 hn        1 MOL      0.276797
    101 H42         0.1850   -1.9890    1.3320 h1        1 MOL      0.167792
    102 H43         1.2980   -4.1500    3.1660 hc        1 MOL     -0.035392
    103 H44         2.0790   -2.3070    4.3290 hc        1 MOL      0.048418
    104 H45         2.5210   -2.0910    2.6180 hc        1 MOL      0.048418
    105 H46         1.2620   -1.1080    3.3840 hc        1 MOL      0.048418
    106 H47        -1.0990   -4.1020    3.8240 hc        1 MOL      0.048418
    107 H48        -0.1050   -2.9160    4.8250 hc        1 MOL      0.048418
    108 H49        -1.0770   -2.4170    3.4520 hc        1 MOL      0.048418
    109 N10         1.8910   -2.4820   -0.3580 n         1 MOL     -0.262430
    110 C35         3.2250   -2.4270   -1.0570 c3        1 MOL      0.050483
    111 C36         4.3770   -2.0720   -0.1770 c         1 MOL      0.496724
    112 O17         4.2380   -1.4790    0.8630 o         1 MOL     -0.321138
    113 C37         3.0640   -1.4700   -2.2370 c3        1 MOL     -0.328121
    114 C38         2.0590   -1.9210   -3.3480 c         1 MOL      0.649572
    115 N11         0.8050   -1.4350   -3.2810 n         1 MOL     -0.770134
    116 O18         2.2620   -2.8330   -4.2140 o         1 MOL     -0.598309
    117 H50         1.3330   -1.6590   -0.5270 hn        1 MOL      0.198530
    118 H51         3.4990   -3.3730   -1.5350 h1        1 MOL      0.058549
    119 H52         3.9860   -1.2490   -2.7810 hc        1 MOL      0.108992
    120 H53         2.7490   -0.5090   -1.8480 hc        1 MOL      0.108992
    121 H54         0.4550   -0.7710   -2.6150 hn        1 MOL      0.343942
    122 H55         0.1300   -1.6680   -3.9980 hn        1 MOL      0.343942
    123 N12         5.5790   -2.2040   -0.7120 n         1 MOL     -0.644242
    124 C39         6.8770   -1.7460   -0.1780 c3        1 MOL      0.326776
    125 C40         7.0410   -0.2150   -0.1860 c         1 MOL      0.553815
    126 O19         7.2530    0.4220    0.8700 o         1 MOL     -0.526485
    127 C41         7.9980   -2.3930   -0.9650 c3        1 MOL     -0.200200
    128 C42         9.3430   -2.0410   -0.3560 ca        1 MOL      0.094606
    129 C43         9.7150   -2.5160    0.9420 ca        1 MOL     -0.220165
    130 C44        10.2440   -1.2960   -1.1940 ca        1 MOL     -0.220165
    131 C45        10.9990   -2.1980    1.4140 ca        1 MOL     -0.208854
    132 C46        11.5040   -1.0360   -0.6440 ca        1 MOL     -0.208854
    133 C47        11.9080   -1.4240    0.6510 ca        1 MOL      0.291448
    134 O20        13.1240   -0.9890    1.1370 oh        1 MOL     -0.496763
    135 H56         5.6000   -2.6030   -1.6330 hn        1 MOL      0.311634
    136 H57         6.9200   -2.0670    0.8590 h1        1 MOL      0.032750
    137 H58         7.9340   -2.0800   -2.0090 hc        1 MOL      0.056045
    138 H59         7.9020   -3.4790   -1.0470 hc        1 MOL      0.056045
    139 H60         8.9930   -3.0500    1.5490 ha        1 MOL      0.161337
    140 H61        10.0370   -0.8570   -2.1570 ha        1 MOL      0.161337
    141 H62        11.3090   -2.4680    2.4060 ha        1 MOL      0.134458
    142 H63        12.2240   -0.4520   -1.2000 ha        1 MOL      0.134458
    143 H64        13.5660   -0.4360    0.4830 ho        1 MOL      0.360092
    144 N13         6.7210    0.3870   -1.3220 n         1 MOL     -0.400978
    145 C48         6.5200    1.7950   -1.4530 c3        1 MOL      0.006595
    146 C49         5.4510    2.4280   -0.4570 c         1 MOL      0.362360
    147 O21         5.5930    3.5910   -0.0640 o         1 MOL     -0.451220
    148 C50         6.0310    1.9710   -2.9290 c3        1 MOL      0.106851
    149 C51         5.7950    3.3500   -3.6230 c3        1 MOL     -0.198476
    150 C52         7.0140    4.2560   -3.6030 c         1 MOL      0.690160
    151 O22         8.1080    3.7250   -3.8940 o         1 MOL     -0.720765
    152 O23         6.8880    5.4380   -3.2310 o         1 MOL     -0.720765
    153 H65         6.7060   -0.0690   -2.2210 hn        1 MOL      0.221488
    154 H66         7.4740    2.3180   -1.3400 h1        1 MOL      0.107074
    155 H67         5.0990    1.4360   -3.0440 hc        1 MOL     -0.039600
    156 H68         6.8270    1.6110   -3.5870 hc        1 MOL     -0.039600
    157 H69         5.0020    3.8100   -3.0310 hc        1 MOL      0.025108
    158 H70         5.4180    3.1440   -4.6280 hc        1 MOL      0.025108
    159 N14         4.4760    1.6390    0.0390 n         1 MOL     -0.128146
    160 C53         3.6240    2.0680    1.2050 c3        1 MOL     -0.140456
    161 C54         4.1790    1.7950    2.6450 c         1 MOL      0.430046
    162 O24         3.9710    2.5260    3.5910 o         1 MOL     -0.542105
    163 C55         2.2410    1.3810    1.1390 c3        1 MOL      0.085128
    164 C56         1.4320    1.7520   -0.1280 c3        1 MOL     -0.016176
    165 C57         0.1330    0.8850   -0.2420 c         1 MOL      0.616887
    166 O25        -0.9790    1.4670   -0.0970 o         1 MOL     -0.659780
    167 O26         0.0470   -0.3050   -0.7100 o         1 MOL     -0.659780
    168 H71         4.2650    0.7440   -0.3790 hn        1 MOL      0.114411
    169 H72         3.4310    3.1440    1.1340 h1        1 MOL      0.125053
    170 H73         1.5720    1.5270    1.9790 hc        1 MOL      0.020201
    171 H74         2.3730    0.3010    1.1690 hc        1 MOL      0.020201
    172 H75         1.9930    1.4560   -1.0110 hc        1 MOL     -0.001841
    173 H76         1.1390    2.7990   -0.1380 hc        1 MOL     -0.001841
    174 N15         4.9660    0.7360    2.8510 n         1 MOL      0.063437
    175 C58         5.4440    0.2390    4.1130 c3        1 MOL     -0.377721
    176 H77         4.5960   -0.0580    4.7310 h1        1 MOL      0.118762
    177 H78         6.0880   -0.6240    3.9440 h1        1 MOL      0.118762
    178 H79         6.0080    1.0200    4.6220 h1        1 MOL      0.118762
    179 H80         5.2620    0.2280    2.0220 hn        1 MOL     -0.022153
    180 Ca1        -2.5630   -0.2810   -1.3140 Ca        1 MOL      1.722042
    181 O27        -1.3470    0.4630   -3.5700 oh        1 MOL     -0.897264
    182 H81        -0.8380    0.1430   -4.3110 ho        1 MOL      0.415403
    183 H82        -1.8390    1.2070   -3.9140 ho        1 MOL      0.415403
@<TRIPOS>BOND
     1    1    2 1   
     2    1    4 1   
     3    1    5 1   
     4    1    6 1   
     5    2    3 2   
     6    2    7 1   
     7    7    8 1   
     8    7   15 1   
     9    8    9 1   
    10    8   11 1   
    11    8   16 1   
    12    9   10 2   
    13    9   19 1   
    14   11   12 1   
    15   11   17 1   
    16   11   18 1   
    17   12   13 1   
    18   12   14 1   
    19   19   20 1   
    20   19   27 1   
    21   20   21 1   
    22   20   23 1   
    23   20   28 1   
    24   21   22 2   
    25   21   38 1   
    26   23   24 1   
    27   23   25 1   
    28   23   29 1   
    29   24   26 1   
    30   24   30 1   
    31   24   31 1   
    32   25   32 1   
    33   25   33 1   
    34   25   34 1   
    35   26   35 1   
    36   26   36 1   
    37   26   37 1   
    38   38   39 1   
    39   38   46 1   
    40   39   40 1   
    41   39   42 1   
    42   39   47 1   
    43   40   41 2   
    44   40   50 1   
    45   42   43 1   
    46   42   48 1   
    47   42   49 1   
    48   43   44 1   
    49   43   45 1   
    50   50   51 1   
    51   50   54 1   
    52   51   52 1   
    53   51   55 1   
    54   51   56 1   
    55   52   53 2   
    56   52   57 1   
    57   57   58 1   
    58   57   65 1   
    59   58   59 1   
    60   58   61 1   
    61   58   66 1   
    62   59   60 2   
    63   59   69 1   
    64   61   62 1   
    65   61   67 1   
    66   61   68 1   
    67   62   63 1   
    68   62   64 1   
    69   69   70 1   
    70   69   73 1   
    71   70   71 1   
    72   70   74 1   
    73   70   75 1   
    74   71   72 2   
    75   71   76 1   
    76   76   77 1   
    77   76   85 1   
    78   77   78 1   
    79   77   80 1   
    80   77   86 1   
    81   78   79 2   
    82   78   93 1   
    83   80   81 1   
    84   80   87 1   
    85   80   88 1   
    86   81   82 1   
    87   81   89 1   
    88   81   90 1   
    89   82   83 1   
    90   82   84 2   
    91   83   91 1   
    92   83   92 1   
    93   93   94 1   
    94   93  100 1   
    95   94   95 1   
    96   94   97 1   
    97   94  101 1   
    98   95   96 2   
    99   95  109 1   
   100   97   98 1   
   101   97   99 1   
   102   97  102 1   
   103   98  103 1   
   104   98  104 1   
   105   98  105 1   
   106   99  106 1   
   107   99  107 1   
   108   99  108 1   
   109  109  110 1   
   110  109  117 1   
   111  110  111 1   
   112  110  113 1   
   113  110  118 1   
   114  111  112 2   
   115  111  123 1   
   116  113  114 1   
   117  113  119 1   
   118  113  120 1   
   119  114  115 1   
   120  114  116 2   
   121  115  121 1   
   122  115  122 1   
   123  123  124 1   
   124  123  135 1   
   125  124  125 1   
   126  124  127 1   
   127  124  136 1   
   128  125  126 2   
   129  125  144 1   
   130  127  128 1   
   131  127  137 1   
   132  127  138 1   
   133  128  129 ar  
   134  128  130 ar  
   135  129  131 ar  
   136  129  139 1   
   137  130  132 ar  
   138  130  140 1   
   139  131  133 ar  
   140  131  141 1   
   141  132  133 ar  
   142  132  142 1   
   143  133  134 1   
   144  134  143 1   
   145  144  145 1   
   146  144  153 1   
   147  145  146 1   
   148  145  148 1   
   149  145  154 1   
   150  146  147 2   
   151  146  159 1   
   152  148  149 1   
   153  148  155 1   
   154  148  156 1   
   155  149  150 1   
   156  149  157 1   
   157  149  158 1   
   158  150  151 1   
   159  150  152 1   
   160  159  160 1   
   161  159  168 1   
   162  160  161 1   
   163  160  163 1   
   164  160  169 1   
   165  161  162 2   
   166  161  174 1   
   167  163  164 1   
   168  163  170 1   
   169  163  171 1   
   170  164  165 1   
   171  164  172 1   
   172  164  173 1   
   173  165  166 1   
   174  165  167 1   
   175  174  175 1   
   176  174  179 1   
   177  175  176 1   
   178  175  177 1   
   179  175  178 1   
   180  181  182 1   
   181  181  183 1   
@<TRIPOS>SUBSTRUCTURE
     1 MOL         1 TEMP              0 ****  ****    0 ROOT
