@<TRIPOS>MOLECULE
MOL
  189   185     1     0     0
SMALL
resp


@<TRIPOS>ATOM
      1 C1         -0.2900    4.6160    5.6720 c3        1 MOL     -0.436762
      2 C2         -0.9250    3.9980    4.4170 c         1 MOL      0.730990
      3 O1         -0.9540    2.7430    4.3860 o         1 MOL     -0.602676
      4 H1         -0.0560    3.8260    6.3860 hc        1 MOL      0.113657
      5 H2          0.6270    5.1380    5.3960 hc        1 MOL      0.113657
      6 H3         -0.9880    5.3200    6.1240 hc        1 MOL      0.113657
      7 N1         -1.4520    4.7640    3.4970 n         1 MOL     -0.526743
      8 C3         -2.1510    4.1710    2.3320 c3        1 MOL      0.202069
      9 C4         -2.1780    5.0730    1.1160 c         1 MOL      0.411557
     10 O2         -2.6870    6.1980    1.1040 o         1 MOL     -0.575314
     11 C5         -3.6360    3.8370    2.5370 c3        1 MOL     -0.419943
     12 C6         -4.3310    3.2900    1.2830 c         1 MOL      0.704190
     13 O3         -5.3460    3.8680    0.8150 o         1 MOL     -0.646477
     14 O4         -3.8900    2.2670    0.6420 o         1 MOL     -0.646477
     15 H4         -1.0550    5.6870    3.4000 hn        1 MOL      0.299110
     16 H5         -1.6670    3.2360    2.0610 h1        1 MOL     -0.026366
     17 H6         -4.1260    4.7320    2.9210 hc        1 MOL      0.111044
     18 H7         -3.7310    3.0860    3.3330 hc        1 MOL      0.111044
     19 N2         -1.7150    4.5530   -0.0200 n         1 MOL      0.142490
     20 C7         -1.5920    5.2060   -1.3460 c3        1 MOL     -0.139992
     21 C8         -2.4440    4.6750   -2.5030 c         1 MOL      0.418781
     22 O5         -2.3520    5.1720   -3.6040 o         1 MOL     -0.563162
     23 C9         -0.1580    5.4880   -1.6440 c3        1 MOL      0.031194
     24 C10         0.6840    4.3240   -2.2640 c3        1 MOL      0.053519
     25 C11         0.6070    6.1230   -0.3990 c3        1 MOL     -0.022617
     26 C12         2.1920    4.5520   -2.4770 c3        1 MOL     -0.310519
     27 H8         -1.4010    3.6020    0.0640 hn        1 MOL      0.041028
     28 H9         -2.0030    6.2080   -1.2020 h1        1 MOL      0.092839
     29 H10        -0.0830    6.3530   -2.3070 hc        1 MOL      0.018095
     30 H11         0.2330    4.0360   -3.2040 hc        1 MOL      0.028107
     31 H12         0.6710    3.4930   -1.5570 hc        1 MOL      0.028107
     32 H13         0.0680    6.9400    0.0780 hc        1 MOL     -0.011753
     33 H14         0.7550    5.4280    0.4280 hc        1 MOL     -0.011753
     34 H15         1.5600    6.5730   -0.6840 hc        1 MOL     -0.011753
     35 H16         2.2410    5.3870   -3.1780 hc        1 MOL      0.075755
     36 H17         2.6360    4.9250   -1.5560 hc        1 MOL      0.075755
     37 H18         2.7070    3.6190   -2.7000 hc        1 MOL      0.075755
     38 N3         -3.2120    3.6130   -2.3450 n         1 MOL     -0.070064
     39 C13        -4.1740    3.2560   -3.3440 c3        1 MOL      0.009676
     40 C14        -5.6470    2.8150   -2.8880 c         1 MOL      0.305343
     41 O6         -6.5210    2.7700   -3.7770 o         1 MOL     -0.553862
     42 C15        -3.6350    2.1550   -4.2570 c3        1 MOL     -0.240291
     43 C16        -3.1220    0.9380   -3.5080 c         1 MOL      0.722565
     44 O7         -3.3790    0.7140   -2.2790 o         1 MOL     -0.721001
     45 O8         -2.4000    0.0990   -4.1250 o         1 MOL     -0.721001
     46 H19        -3.2300    3.2400   -1.4130 hn        1 MOL      0.022942
     47 H20        -4.4220    4.0760   -4.0100 h1        1 MOL      0.095868
     48 H21        -2.8900    2.6580   -4.8720 hc        1 MOL      0.078441
     49 H22        -4.4250    1.8270   -4.9390 hc        1 MOL      0.078441
     50 N4         -5.9450    2.5320   -1.6450 n         1 MOL     -0.049442
     51 C17        -7.3210    2.2260   -1.2200 c3        1 MOL     -0.030933
     52 C18        -7.7050    0.7450   -1.4220 c         1 MOL      0.341893
     53 O9         -8.9110    0.3670   -1.3450 o         1 MOL     -0.563884
     54 H23        -5.2440    2.5150   -0.9240 hn        1 MOL      0.097463
     55 H24        -8.1200    2.8810   -1.5750 h1        1 MOL      0.075671
     56 H25        -7.2990    2.4400   -0.1550 h1        1 MOL      0.075671
     57 N5         -6.7190   -0.2040   -1.6710 n         1 MOL     -0.109419
     58 C19        -7.0310   -1.5680   -2.0230 c3        1 MOL      0.003647
     59 C20        -7.3970   -2.4540   -0.8570 c         1 MOL      0.405457
     60 O10        -8.1370   -3.4430   -1.0910 o         1 MOL     -0.545083
     61 C21        -5.8560   -2.2570   -2.7510 c3        1 MOL     -0.489300
     62 C22        -4.5680   -2.2760   -1.9160 c         1 MOL      0.850171
     63 O11        -4.5260   -1.6290   -0.8400 o         1 MOL     -0.699455
     64 O12        -3.6430   -3.1210   -2.2820 o         1 MOL     -0.699455
     65 H26        -5.7740    0.1510   -1.7130 hn        1 MOL      0.183755
     66 H27        -7.8060   -1.6540   -2.7860 h1        1 MOL      0.109300
     67 H28        -5.6070   -1.6470   -3.6210 hc        1 MOL      0.149621
     68 H29        -6.2810   -3.2410   -2.9230 hc        1 MOL      0.149621
     69 N6         -6.8390   -2.2520    0.3330 n         1 MOL     -0.204727
     70 C23        -6.9330   -3.1140    1.4970 c3        1 MOL     -0.122557
     71 C24        -5.7530   -4.1190    1.7280 c         1 MOL      0.485203
     72 O13        -5.8980   -5.1850    2.3090 o         1 MOL     -0.592416
     73 H30        -6.2400   -1.4520    0.4920 hn        1 MOL      0.209766
     74 H31        -7.8890   -3.6440    1.4640 h1        1 MOL      0.073584
     75 H32        -6.9190   -2.5660    2.4290 h1        1 MOL      0.073584
     76 N7         -4.5670   -3.7230    1.3390 n         1 MOL     -0.180814
     77 C25        -3.2260   -4.3420    1.7200 c3        1 MOL     -0.075508
     78 C26        -2.2270   -3.2500    2.0720 c         1 MOL      0.334782
     79 O14        -2.4460   -2.0580    1.7410 o         1 MOL     -0.504356
     80 C27        -2.7220   -5.1360    0.4840 c3        1 MOL      0.044929
     81 C28        -3.6910   -5.9090   -0.3520 c3        1 MOL     -0.417507
     82 C29        -3.0150   -6.4750   -1.5910 c         1 MOL      0.687205
     83 N8         -2.8960   -5.7570   -2.6710 n         1 MOL     -0.704318
     84 O15        -2.6220   -7.6170   -1.5670 o         1 MOL     -0.617861
     85 H33        -4.5430   -2.9260    0.7290 hn        1 MOL      0.267644
     86 H34        -3.3420   -4.9800    2.5940 h1        1 MOL      0.092996
     87 H35        -1.8400   -5.7590    0.6660 hc        1 MOL      0.053307
     88 H36        -2.3300   -4.3910   -0.2240 hc        1 MOL      0.053307
     89 H37        -4.4250   -5.1720   -0.6650 hc        1 MOL      0.131026
     90 H38        -4.0830   -6.6180    0.3820 hc        1 MOL      0.131026
     91 H39        -3.2210   -4.8110   -2.7260 hn        1 MOL      0.321195
     92 H40        -2.7230   -6.1530   -3.5930 hn        1 MOL      0.321195
     93 N9         -1.0510   -3.5610    2.6070 n         1 MOL     -0.373973
     94 C30         0.0820   -2.6110    2.8710 c3        1 MOL      0.023019
     95 C31         1.2900   -3.0650    2.0390 c         1 MOL      0.342426
     96 O16         1.6870   -4.1950    2.1770 o         1 MOL     -0.550177
     97 C32         0.3040   -2.3640    4.3350 c3        1 MOL      0.296811
     98 C33         0.4930   -3.5970    5.1810 c3        1 MOL     -0.270802
     99 C34         1.3740   -1.3170    4.5020 c3        1 MOL     -0.270802
    100 H41        -0.8740   -4.5420    2.7710 hn        1 MOL      0.266127
    101 H42        -0.2690   -1.6220    2.5910 h1        1 MOL      0.274603
    102 H43        -0.6110   -1.8680    4.6530 hc        1 MOL     -0.079188
    103 H44         1.4030   -4.1250    4.9030 hc        1 MOL      0.050849
    104 H45         0.7340   -3.3560    6.2070 hc        1 MOL      0.050849
    105 H46        -0.4140   -4.2150    5.1710 hc        1 MOL      0.050849
    106 H47         1.5330   -1.1710    5.5770 hc        1 MOL      0.050849
    107 H48         2.2890   -1.7830    4.1320 hc        1 MOL      0.050849
    108 H49         1.1070   -0.4230    3.9520 hc        1 MOL      0.050849
    109 N10         1.6380   -2.2450    1.0840 n         1 MOL     -0.096127
    110 C35         2.7670   -2.5160    0.1550 c3        1 MOL     -0.027395
    111 C36         4.0750   -2.1560    0.8910 c         1 MOL      0.255562
    112 O17         4.0970   -1.3970    1.8690 o         1 MOL     -0.307786
    113 C37         2.4970   -1.6360   -1.0680 c3        1 MOL     -0.242765
    114 C38         3.4020   -1.9690   -2.2350 c         1 MOL      0.746899
    115 N11         3.3390   -3.0420   -2.9250 n         1 MOL     -0.793494
    116 O18         4.2530   -1.1890   -2.5680 o         1 MOL     -0.579828
    117 H50         1.0680   -1.4300    0.9010 hn        1 MOL      0.124570
    118 H51         2.8250   -3.5660   -0.1280 h1        1 MOL      0.082211
    119 H52         2.5970   -0.5850   -0.7970 hc        1 MOL      0.114666
    120 H53         1.4840   -1.7850   -1.4490 hc        1 MOL      0.114666
    121 H54         2.5770   -3.6960   -2.7690 hn        1 MOL      0.357836
    122 H55         3.9860   -3.0740   -3.7020 hn        1 MOL      0.357836
    123 N12         5.2110   -2.6630    0.3330 n         1 MOL     -0.167535
    124 C39         6.5620   -2.4210    0.8930 c3        1 MOL      0.027145
    125 C40         6.8450   -0.9220    0.8940 c         1 MOL      0.423589
    126 O19         7.5500   -0.4420    1.8370 o         1 MOL     -0.557146
    127 C41         7.6020   -3.1990    0.1100 c3        1 MOL      0.014148
    128 C42         7.9480   -2.5950   -1.2750 ca        1 MOL      0.126957
    129 C43         9.1000   -1.8090   -1.4050 ca        1 MOL     -0.297442
    130 C44         7.1170   -2.9690   -2.4060 ca        1 MOL     -0.297442
    131 C45         9.5010   -1.3770   -2.6600 ca        1 MOL     -0.223708
    132 C46         7.5260   -2.5530   -3.6780 ca        1 MOL     -0.223708
    133 C47         8.7010   -1.7580   -3.8120 ca        1 MOL      0.303351
    134 O20         9.0660   -1.3440   -5.0790 oh        1 MOL     -0.560924
    135 H56         5.0060   -3.2910   -0.4380 hn        1 MOL      0.130659
    136 H57         6.6250   -2.6930    1.9430 h1        1 MOL      0.063990
    137 H58         7.2380   -4.2180    0.0180 hc        1 MOL      0.001591
    138 H59         8.5290   -3.3820    0.6470 hc        1 MOL      0.001591
    139 H60         9.7190   -1.4940   -0.5740 ha        1 MOL      0.194140
    140 H61         6.3030   -3.6510   -2.2360 ha        1 MOL      0.194140
    141 H62        10.3400   -0.7220   -2.8060 ha        1 MOL      0.162443
    142 H63         6.9700   -2.7570   -4.5740 ha        1 MOL      0.162443
    143 H64         9.6900   -0.6230   -5.0050 ho        1 MOL      0.411373
    144 N13         6.2970   -0.1440   -0.0890 n         1 MOL     -0.019501
    145 C48         6.2920    1.3790   -0.2000 c3        1 MOL     -0.099661
    146 C49         5.3350    2.1140    0.6610 c         1 MOL      0.462921
    147 O21         5.3380    3.3160    0.6350 o         1 MOL     -0.569736
    148 C50         6.0250    1.7810   -1.6350 c3        1 MOL      0.080042
    149 C51         7.0560    1.1970   -2.6530 c3        1 MOL     -0.111405
    150 C52         8.4290    1.7980   -2.4520 c         1 MOL      0.727751
    151 O22         9.0030    2.3550   -3.4150 o         1 MOL     -0.736478
    152 O23         9.0290    1.6870   -1.3240 o         1 MOL     -0.736478
    153 H65         5.7220   -0.5270   -0.8330 hn        1 MOL      0.074766
    154 H66         7.2900    1.7430    0.0410 h1        1 MOL      0.115210
    155 H67         6.0230    2.8670   -1.7660 hc        1 MOL     -0.000080
    156 H68         5.0280    1.4090   -1.8910 hc        1 MOL     -0.000080
    157 H69         6.7730    1.3770   -3.6920 hc        1 MOL      0.008321
    158 H70         7.0770    0.1070   -2.6410 hc        1 MOL      0.008321
    159 N14         4.4900    1.5000    1.3600 n         1 MOL     -0.212580
    160 C53         3.5390    2.0720    2.3500 c3        1 MOL     -0.091909
    161 C54         4.0150    1.7750    3.8320 c         1 MOL      0.458897
    162 O24         3.7550    2.4920    4.8360 o         1 MOL     -0.562275
    163 C55         2.0730    1.5180    2.1140 c3        1 MOL      0.003278
    164 C56         1.3290    2.0710    0.8600 c3        1 MOL     -0.105767
    165 C57         0.1780    1.2220    0.3950 c         1 MOL      0.910480
    166 O25        -0.7510    1.8070   -0.1470 o         1 MOL     -0.809706
    167 O26         0.1030   -0.0520    0.6130 o         1 MOL     -0.809706
    168 H71         4.4950    0.4980    1.2210 hn        1 MOL      0.112246
    169 H72         3.4860    3.1650    2.3130 h1        1 MOL      0.089723
    170 H73         1.5190    1.8870    2.9780 hc        1 MOL      0.048716
    171 H74         2.1150    0.4330    2.0430 hc        1 MOL      0.048716
    172 H75         1.9900    2.1500    0.0010 hc        1 MOL      0.038151
    173 H76         0.9770    3.0440    1.1960 hc        1 MOL      0.038151
    174 N15         4.6250    0.5650    3.9300 n         1 MOL     -0.098229
    175 C58         5.1630   -0.0340    5.1400 c3        1 MOL     -0.195223
    176 H77         4.3860   -0.6160    5.6340 h1        1 MOL      0.079997
    177 H78         5.9980   -0.6860    4.8830 h1        1 MOL      0.079997
    178 H79         5.5100    0.7520    5.8120 h1        1 MOL      0.079997
    179 H80         4.7030    0.0220    3.0870 hn        1 MOL      0.069649
    180 Ca1        -2.6070    0.0140    0.1720 Ca        1 MOL      1.768039
    181 O27        -1.6930    0.4420    3.1940 oh        1 MOL     -0.959496
    182 H81        -2.3090    0.0650    3.8120 ho        1 MOL      0.435192
    183 H82        -1.2770    1.1670    3.6700 ho        1 MOL      0.435192
    184 O28        -1.6340   -1.7640   -1.5970 oh        1 MOL     -0.959496
    185 H83        -1.4980   -1.1760   -2.3370 ho        1 MOL      0.435192
    186 H84        -2.2590   -2.4250   -1.9190 ho        1 MOL      0.435192
    187 O29        -4.8320   -0.4680    1.8740 oh        1 MOL     -0.959496
    188 H85        -5.5340    0.1640    2.0570 ho        1 MOL      0.435192
    189 H86        -4.4210   -0.6070    2.7170 ho        1 MOL      0.435192
@<TRIPOS>BOND
     1    1    2 1   
     2    1    4 1   
     3    1    5 1   
     4    1    6 1   
     5    2    3 2   
     6    2    7 1   
     7    7    8 1   
     8    7   15 1   
     9    8    9 1   
    10    8   11 1   
    11    8   16 1   
    12    9   10 2   
    13    9   19 1   
    14   11   12 1   
    15   11   17 1   
    16   11   18 1   
    17   12   13 1   
    18   12   14 1   
    19   19   20 1   
    20   19   27 1   
    21   20   21 1   
    22   20   23 1   
    23   20   28 1   
    24   21   22 2   
    25   21   38 1   
    26   23   24 1   
    27   23   25 1   
    28   23   29 1   
    29   24   26 1   
    30   24   30 1   
    31   24   31 1   
    32   25   32 1   
    33   25   33 1   
    34   25   34 1   
    35   26   35 1   
    36   26   36 1   
    37   26   37 1   
    38   38   39 1   
    39   38   46 1   
    40   39   40 1   
    41   39   42 1   
    42   39   47 1   
    43   40   41 2   
    44   40   50 1   
    45   42   43 1   
    46   42   48 1   
    47   42   49 1   
    48   43   44 1   
    49   43   45 1   
    50   50   51 1   
    51   50   54 1   
    52   51   52 1   
    53   51   55 1   
    54   51   56 1   
    55   52   53 2   
    56   52   57 1   
    57   57   58 1   
    58   57   65 1   
    59   58   59 1   
    60   58   61 1   
    61   58   66 1   
    62   59   60 2   
    63   59   69 1   
    64   61   62 1   
    65   61   67 1   
    66   61   68 1   
    67   62   63 1   
    68   62   64 1   
    69   69   70 1   
    70   69   73 1   
    71   70   71 1   
    72   70   74 1   
    73   70   75 1   
    74   71   72 2   
    75   71   76 1   
    76   76   77 1   
    77   76   85 1   
    78   77   78 1   
    79   77   80 1   
    80   77   86 1   
    81   78   79 2   
    82   78   93 1   
    83   80   81 1   
    84   80   87 1   
    85   80   88 1   
    86   81   82 1   
    87   81   89 1   
    88   81   90 1   
    89   82   83 1   
    90   82   84 2   
    91   83   91 1   
    92   83   92 1   
    93   93   94 1   
    94   93  100 1   
    95   94   95 1   
    96   94   97 1   
    97   94  101 1   
    98   95   96 2   
    99   95  109 1   
   100   97   98 1   
   101   97   99 1   
   102   97  102 1   
   103   98  103 1   
   104   98  104 1   
   105   98  105 1   
   106   99  106 1   
   107   99  107 1   
   108   99  108 1   
   109  109  110 1   
   110  109  117 1   
   111  110  111 1   
   112  110  113 1   
   113  110  118 1   
   114  111  112 2   
   115  111  123 1   
   116  113  114 1   
   117  113  119 1   
   118  113  120 1   
   119  114  115 1   
   120  114  116 2   
   121  115  121 1   
   122  115  122 1   
   123  123  124 1   
   124  123  135 1   
   125  124  125 1   
   126  124  127 1   
   127  124  136 1   
   128  125  126 2   
   129  125  144 1   
   130  127  128 1   
   131  127  137 1   
   132  127  138 1   
   133  128  129 ar  
   134  128  130 ar  
   135  129  131 ar  
   136  129  139 1   
   137  130  132 ar  
   138  130  140 1   
   139  131  133 ar  
   140  131  141 1   
   141  132  133 ar  
   142  132  142 1   
   143  133  134 1   
   144  134  143 1   
   145  144  145 1   
   146  144  153 1   
   147  145  146 1   
   148  145  148 1   
   149  145  154 1   
   150  146  147 2   
   151  146  159 1   
   152  148  149 1   
   153  148  155 1   
   154  148  156 1   
   155  149  150 1   
   156  149  157 1   
   157  149  158 1   
   158  150  151 1   
   159  150  152 1   
   160  159  160 1   
   161  159  168 1   
   162  160  161 1   
   163  160  163 1   
   164  160  169 1   
   165  161  162 2   
   166  161  174 1   
   167  163  164 1   
   168  163  170 1   
   169  163  171 1   
   170  164  165 1   
   171  164  172 1   
   172  164  173 1   
   173  165  166 1   
   174  165  167 1   
   175  174  175 1   
   176  174  179 1   
   177  175  176 1   
   178  175  177 1   
   179  175  178 1   
   180  181  182 1   
   181  181  183 1   
   182  184  185 1   
   183  184  186 1   
   184  187  188 1   
   185  187  189 1   
@<TRIPOS>SUBSTRUCTURE
     1 MOL         1 TEMP              0 ****  ****    0 ROOT
