@<TRIPOS>MOLECULE
MOL
  175   173     1     0     0
SMALL
resp


@<TRIPOS>ATOM
      1 C1          0.5430    4.5050    5.2250 c3        1 MOL     -0.448054
      2 C2         -0.0670    4.2220    3.8030 c         1 MOL      0.740224
      3 O1          0.6450    3.9850    2.8520 o         1 MOL     -0.547124
      4 H1          0.9850    5.5020    5.2390 hc        1 MOL      0.108851
      5 H2         -0.2440    4.4460    5.9770 hc        1 MOL      0.108851
      6 H3          1.3120    3.7640    5.4450 hc        1 MOL      0.108851
      7 N1         -1.4160    4.0930    3.7550 n         1 MOL     -0.704187
      8 C3         -2.0840    3.8280    2.4630 c3        1 MOL      0.262497
      9 C4         -2.3760    5.0900    1.6090 c         1 MOL      0.475846
     10 O2         -2.4390    6.2770    2.0650 o         1 MOL     -0.577438
     11 C5         -3.3330    3.0450    2.7870 c3        1 MOL     -0.107029
     12 C6         -4.0170    2.4780    1.5670 c         1 MOL      0.508251
     13 O3         -5.2790    2.3980    1.6690 o         1 MOL     -0.598768
     14 O4         -3.4200    2.1170    0.5040 o         1 MOL     -0.598768
     15 H4         -1.9730    4.3280    4.5660 hn        1 MOL      0.340788
     16 H5         -1.4080    3.2530    1.8190 h1        1 MOL      0.055052
     17 H6         -3.9930    3.7000    3.3440 hc        1 MOL      0.015449
     18 H7         -3.0310    2.2730    3.4950 hc        1 MOL      0.015449
     19 N2         -2.5730    4.8110    0.3360 n         1 MOL     -0.458843
     20 C7         -3.1540    5.6740   -0.7210 c3        1 MOL      0.407923
     21 C8         -4.1610    5.0070   -1.7050 c         1 MOL      0.415147
     22 O5         -4.6760    5.7590   -2.5550 o         1 MOL     -0.567446
     23 C9         -1.9690    6.3170   -1.5070 c3        1 MOL     -0.293813
     24 H8         -2.3800    3.8400    0.1080 hn        1 MOL      0.249716
     25 H9         -3.7430    6.4730   -0.2660 h1        1 MOL     -0.018517
     26 H10        -1.2990    5.5270   -1.8650 hc        1 MOL      0.070830
     27 H11        -2.3470    6.9420   -2.3200 hc        1 MOL      0.070830
     28 H12        -1.4470    6.9400   -0.7990 hc        1 MOL      0.070830
     29 N3         -4.4590    3.6910   -1.6560 n         1 MOL     -0.401069
     30 C10        -5.2180    3.0660   -2.8020 c3        1 MOL      0.168472
     31 C11        -6.2710    2.0710   -2.3750 c         1 MOL      0.312722
     32 O6         -7.0920    1.6160   -3.2020 o         1 MOL     -0.548081
     33 C12        -4.3170    2.3800   -3.7600 c3        1 MOL     -0.259600
     34 C13        -3.3630    1.4150   -3.0000 c         1 MOL      0.714836
     35 O7         -3.9020    0.6800   -2.1510 o         1 MOL     -0.674805
     36 O8         -2.1290    1.5540   -3.2270 o         1 MOL     -0.674805
     37 H13        -4.0350    3.0680   -0.9730 hn        1 MOL      0.255505
     38 H14        -5.7590    3.8720   -3.3060 h1        1 MOL      0.079982
     39 H15        -3.6900    3.1200   -4.2690 hc        1 MOL      0.061621
     40 H16        -4.8940    1.7480   -4.4490 hc        1 MOL      0.061621
     41 N4         -6.3780    1.7240   -1.0830 n         1 MOL     -0.021204
     42 C14        -7.5230    0.9810   -0.4700 c3        1 MOL     -0.408616
     43 C15        -7.4870   -0.5620   -0.7200 c         1 MOL      0.610035
     44 O9         -8.4900   -1.2460   -0.4130 o         1 MOL     -0.636987
     45 H17        -5.5870    1.9370   -0.5020 hn        1 MOL      0.027496
     46 H18        -8.4690    1.2970   -0.9190 h1        1 MOL      0.164449
     47 H19        -7.3460    1.2260    0.5790 h1        1 MOL      0.164449
     48 N5         -6.4170   -1.0770   -1.2820 n         1 MOL     -0.288756
     49 C16        -6.3670   -2.4090   -1.9130 c3        1 MOL     -0.026211
     50 C17        -6.1150   -3.5320   -0.9090 c         1 MOL      0.490375
     51 O10        -5.7490   -4.6280   -1.2650 o         1 MOL     -0.492446
     52 C18        -5.1790   -2.3570   -2.9530 c3        1 MOL     -0.198998
     53 C19        -3.7710   -2.2060   -2.3180 c         1 MOL      0.802098
     54 N6         -2.7290   -2.3150   -3.0750 n         1 MOL     -0.792339
     55 O11        -3.6410   -1.9550   -1.1750 o         1 MOL     -0.747300
     56 H20        -5.7550   -0.3380   -1.4760 hn        1 MOL      0.295120
     57 H21        -7.2400   -2.6790   -2.5100 h1        1 MOL      0.111913
     58 H22        -5.3110   -1.4870   -3.5900 hc        1 MOL      0.064647
     59 H23        -5.1640   -3.2370   -3.6000 hc        1 MOL      0.064647
     60 H24        -2.7510   -2.9090   -3.8910 hn        1 MOL      0.354747
     61 H25        -1.7950   -2.1870   -2.7090 hn        1 MOL      0.354747
     62 N7         -6.2600   -3.1880    0.4190 n         1 MOL     -0.373357
     63 C20        -6.1510   -4.0300    1.5750 c3        1 MOL     -0.020545
     64 C21        -4.7510   -4.4700    1.9430 c         1 MOL      0.339217
     65 O12        -4.6120   -5.5380    2.5810 o         1 MOL     -0.552180
     66 H26        -6.4200   -2.2100    0.6220 hn        1 MOL      0.293023
     67 H27        -6.7940   -4.8870    1.4310 h1        1 MOL      0.081185
     68 H28        -6.6740   -3.5300    2.3960 h1        1 MOL      0.081185
     69 N8         -3.7070   -3.8880    1.3310 n         1 MOL      0.014318
     70 C22        -2.3200   -4.3960    1.5000 c3        1 MOL     -0.116646
     71 C23        -1.2150   -3.3310    1.5120 c         1 MOL      0.383702
     72 O13        -1.3660   -2.2540    0.8020 o         1 MOL     -0.480313
     73 C24        -1.9280   -5.3630    0.3790 c3        1 MOL      0.431421
     74 C25        -2.7800   -6.6030    0.3770 c3        1 MOL     -0.537118
     75 O14        -2.1790   -4.7660   -0.9220 oh        1 MOL     -0.563739
     76 H29        -3.8430   -3.0290    0.8280 hn        1 MOL     -0.020919
     77 H30        -2.3200   -5.0130    2.3990 h1        1 MOL      0.070786
     78 H31        -0.8730   -5.6160    0.4680 h1        1 MOL     -0.000337
     79 H32        -2.3430   -3.8250   -0.8170 ho        1 MOL      0.334930
     80 H33        -2.5750   -7.2500   -0.4870 hc        1 MOL      0.140237
     81 H34        -2.7110   -7.1820    1.2940 hc        1 MOL      0.140237
     82 H35        -3.8080   -6.3050    0.1940 hc        1 MOL      0.140237
     83 N9         -0.1510   -3.5840    2.2250 n         1 MOL     -0.370911
     84 C26         0.9600   -2.6440    2.2570 c3        1 MOL      0.017440
     85 C27         1.7560   -2.9500    0.9380 c         1 MOL      0.509067
     86 O15         2.1960   -4.0790    0.6570 o         1 MOL     -0.575038
     87 C28         1.8500   -2.8290    3.5730 c3        1 MOL      0.009081
     88 C29         1.3050   -1.9140    4.6450 c3        1 MOL      0.082104
     89 C30         3.3380   -2.5380    3.4230 c3        1 MOL     -0.181294
     90 C31         1.9650   -1.9480    6.0320 c3        1 MOL     -0.070234
     91 H36        -0.1150   -4.5010    2.6530 hn        1 MOL      0.273371
     92 H37         0.5560   -1.6310    2.2590 h1        1 MOL      0.062963
     93 H38         1.7000   -3.8540    3.9290 hc        1 MOL      0.020503
     94 H39         0.2520   -2.1380    4.7670 hc        1 MOL     -0.018809
     95 H40         1.4560   -0.8890    4.2890 hc        1 MOL     -0.018809
     96 H41         3.8320   -2.5590    4.3980 hc        1 MOL      0.042825
     97 H42         3.7920   -3.2010    2.6890 hc        1 MOL      0.042825
     98 H43         3.3730   -1.5180    3.0680 hc        1 MOL      0.042825
     99 H44         1.2230   -1.4750    6.6800 hc        1 MOL      0.010159
    100 H45         2.1460   -2.9410    6.4400 hc        1 MOL      0.010159
    101 H46         2.9030   -1.3970    6.0980 hc        1 MOL      0.010159
    102 N10         1.7290   -1.9630   -0.0230 n         1 MOL     -0.138741
    103 C32         2.4950   -1.8990   -1.2210 c3        1 MOL     -0.041252
    104 C33         3.9090   -1.4890   -0.9400 c         1 MOL      0.563104
    105 O16         4.2410   -0.9890    0.1580 o         1 MOL     -0.455454
    106 C34         1.9160   -0.9760   -2.3400 c3        1 MOL     -0.107338
    107 C35         0.5090   -1.4090   -2.6760 c         1 MOL      0.635746
    108 O17        -0.3960   -1.3420   -1.8120 o         1 MOL     -0.645568
    109 O18         0.3500   -1.7980   -3.8590 o         1 MOL     -0.645568
    110 H47         1.3000   -1.0920    0.2350 hn        1 MOL      0.159111
    111 H48         2.5010   -2.9330   -1.5800 h1        1 MOL      0.074216
    112 H49         2.5720   -0.7640   -3.1810 hc        1 MOL      0.027880
    113 H50         1.9140   -0.0280   -1.7990 hc        1 MOL      0.027880
    114 N11         4.8510   -1.6360   -1.9310 n         1 MOL     -0.853312
    115 C36         6.3250   -1.3970   -1.6330 c3        1 MOL      0.704443
    116 C37         6.7360   -0.0270   -1.1450 c         1 MOL      0.305509
    117 O19         7.4020    0.0120   -0.1280 o         1 MOL     -0.496266
    118 C38         7.2090   -1.8220   -2.8110 c3        1 MOL     -0.302104
    119 C39         8.6860   -1.7030   -2.5050 ca        1 MOL      0.178926
    120 C40         9.2740   -2.0910   -1.2850 ca        1 MOL     -0.230076
    121 C41         9.5720   -1.1890   -3.4230 ca        1 MOL     -0.230076
    122 C42        10.5800   -1.8690   -0.9740 ca        1 MOL     -0.021006
    123 C43        10.9130   -0.9070   -3.1320 ca        1 MOL     -0.021006
    124 C44        11.4460   -1.2650   -1.9160 ca        1 MOL     -0.203824
    125 H51         4.6080   -2.1410   -2.7620 hn        1 MOL      0.360171
    126 H52         6.5060   -2.0680   -0.8070 h1        1 MOL     -0.025432
    127 H53         6.9520   -1.2320   -3.6870 hc        1 MOL      0.060618
    128 H54         6.9160   -2.8580   -2.9710 hc        1 MOL      0.060618
    129 H55         8.7290   -2.6360   -0.5330 ha        1 MOL      0.112308
    130 H56         9.2240   -0.9990   -4.4340 ha        1 MOL      0.112308
    131 H57        10.9770   -2.3280   -0.0800 ha        1 MOL      0.084895
    132 H58        11.5770   -0.4420   -3.8570 ha        1 MOL      0.084895
    133 H59        12.4860   -1.1030   -1.6610 ha        1 MOL      0.118840
    134 N12         6.3170    1.0690   -1.7730 n         1 MOL     -0.133749
    135 C45         6.5950    2.4340   -1.2130 c3        1 MOL     -0.007624
    136 C46         5.9140    2.6690    0.1300 c         1 MOL      0.250349
    137 O20         6.3460    3.5590    0.9000 o         1 MOL     -0.503987
    138 C47         6.0720    3.3920   -2.2510 c3        1 MOL      0.052103
    139 C48         5.9640    2.5460   -3.5750 c3        1 MOL     -0.136142
    140 C49         5.5930    1.2430   -3.0060 c3        1 MOL     -0.118269
    141 H60         7.6650    2.6400   -1.0840 h1        1 MOL      0.090525
    142 H61         5.0730    3.7180   -1.9770 hc        1 MOL      0.022870
    143 H62         6.6520    4.2950   -2.4240 hc        1 MOL      0.022870
    144 H63         5.2030    2.9170   -4.2620 hc        1 MOL      0.050986
    145 H64         6.9650    2.5360   -4.0060 hc        1 MOL      0.050986
    146 H65         4.5090    1.3170   -2.9360 h1        1 MOL      0.104171
    147 H66         5.8260    0.5230   -3.7950 h1        1 MOL      0.104171
    148 N13         4.8750    1.9070    0.4740 n         1 MOL      0.002842
    149 C50         4.1720    2.0510    1.7630 c3        1 MOL     -0.192133
    150 C51         5.0010    1.2950    2.8670 c         1 MOL      0.442561
    151 O21         5.1060    1.8490    4.0130 o         1 MOL     -0.562708
    152 C52         2.6920    1.6200    1.7210 c3        1 MOL     -0.019413
    153 C53         1.9490    2.1310    0.4280 c3        1 MOL     -0.089620
    154 C54         0.5970    1.4390    0.4200 c         1 MOL      0.760549
    155 O22         0.4210    0.3350    0.9800 o         1 MOL     -0.785776
    156 O23        -0.3660    1.9680   -0.1900 o         1 MOL     -0.785776
    157 H67         4.5380    1.2280   -0.1860 hn        1 MOL      0.126887
    158 H68         4.2220    3.1000    2.0350 h1        1 MOL      0.119089
    159 H69         2.1810    1.9410    2.6260 hc        1 MOL      0.075187
    160 H70         2.7980    0.5340    1.7240 hc        1 MOL      0.075187
    161 H71         2.5050    1.8320   -0.4610 hc        1 MOL      0.044857
    162 H72         1.8190    3.2180    0.4290 hc        1 MOL      0.044857
    163 N14         5.6310    0.1760    2.5060 n         1 MOL     -0.034332
    164 C55         6.6730   -0.5020    3.3070 c3        1 MOL     -0.218535
    165 H73         7.2870    0.2440    3.8110 h1        1 MOL      0.081574
    166 H74         6.2000   -1.1450    4.0500 h1        1 MOL      0.081574
    167 H75         7.3010   -1.1050    2.6520 h1        1 MOL      0.081574
    168 H76         5.3090   -0.3380    1.6990 hn        1 MOL      0.113800
    169 Ca1        -2.1190    0.0540   -0.3710 Ca        1 MOL      1.694437
    170 O24        -1.8770   -0.0860    2.7830 oh        1 MOL     -0.730374
    171 H77        -2.0630   -0.0220    3.7230 ho        1 MOL      0.380746
    172 H78        -0.9810    0.2520    2.7000 ho        1 MOL      0.380746
    173 O25        -3.9630   -0.9720    1.6060 oh        1 MOL     -0.730374
    174 H79        -3.2760   -0.8090    2.2600 ho        1 MOL      0.380746
    175 H80        -4.7790   -0.8090    2.0720 ho        1 MOL      0.380746
@<TRIPOS>BOND
     1    1    2 1   
     2    1    4 1   
     3    1    5 1   
     4    1    6 1   
     5    2    3 2   
     6    2    7 1   
     7    7    8 1   
     8    7   15 1   
     9    8    9 1   
    10    8   11 1   
    11    8   16 1   
    12    9   10 2   
    13    9   19 1   
    14   11   12 1   
    15   11   17 1   
    16   11   18 1   
    17   12   13 1   
    18   12   14 1   
    19   19   20 1   
    20   19   24 1   
    21   20   21 1   
    22   20   23 1   
    23   20   25 1   
    24   21   22 2   
    25   21   29 1   
    26   23   26 1   
    27   23   27 1   
    28   23   28 1   
    29   29   30 1   
    30   29   37 1   
    31   30   31 1   
    32   30   33 1   
    33   30   38 1   
    34   31   32 2   
    35   31   41 1   
    36   33   34 1   
    37   33   39 1   
    38   33   40 1   
    39   34   35 1   
    40   34   36 1   
    41   41   42 1   
    42   41   45 1   
    43   42   43 1   
    44   42   46 1   
    45   42   47 1   
    46   43   44 2   
    47   43   48 1   
    48   48   49 1   
    49   48   56 1   
    50   49   50 1   
    51   49   52 1   
    52   49   57 1   
    53   50   51 2   
    54   50   62 1   
    55   52   53 1   
    56   52   58 1   
    57   52   59 1   
    58   53   54 1   
    59   53   55 2   
    60   54   60 1   
    61   54   61 1   
    62   62   63 1   
    63   62   66 1   
    64   63   64 1   
    65   63   67 1   
    66   63   68 1   
    67   64   65 2   
    68   64   69 1   
    69   69   70 1   
    70   69   76 1   
    71   70   71 1   
    72   70   73 1   
    73   70   77 1   
    74   71   72 2   
    75   71   83 1   
    76   73   74 1   
    77   73   75 1   
    78   73   78 1   
    79   74   80 1   
    80   74   81 1   
    81   74   82 1   
    82   75   79 1   
    83   83   84 1   
    84   83   91 1   
    85   84   85 1   
    86   84   87 1   
    87   84   92 1   
    88   85   86 2   
    89   85  102 1   
    90   87   88 1   
    91   87   89 1   
    92   87   93 1   
    93   88   90 1   
    94   88   94 1   
    95   88   95 1   
    96   89   96 1   
    97   89   97 1   
    98   89   98 1   
    99   90   99 1   
   100   90  100 1   
   101   90  101 1   
   102  102  103 1   
   103  102  110 1   
   104  103  104 1   
   105  103  106 1   
   106  103  111 1   
   107  104  105 2   
   108  104  114 1   
   109  106  107 1   
   110  106  112 1   
   111  106  113 1   
   112  107  108 1   
   113  107  109 1   
   114  114  115 1   
   115  114  125 1   
   116  115  116 1   
   117  115  118 1   
   118  115  126 1   
   119  116  117 2   
   120  116  134 1   
   121  118  119 1   
   122  118  127 1   
   123  118  128 1   
   124  119  120 ar  
   125  119  121 ar  
   126  120  122 ar  
   127  120  129 1   
   128  121  123 ar  
   129  121  130 1   
   130  122  124 ar  
   131  122  131 1   
   132  123  124 ar  
   133  123  132 1   
   134  124  133 1   
   135  134  135 1   
   136  134  140 1   
   137  135  136 1   
   138  135  138 1   
   139  135  141 1   
   140  136  137 2   
   141  136  148 1   
   142  138  139 1   
   143  138  142 1   
   144  138  143 1   
   145  139  140 1   
   146  139  144 1   
   147  139  145 1   
   148  140  146 1   
   149  140  147 1   
   150  148  149 1   
   151  148  157 1   
   152  149  150 1   
   153  149  152 1   
   154  149  158 1   
   155  150  151 2   
   156  150  163 1   
   157  152  153 1   
   158  152  159 1   
   159  152  160 1   
   160  153  154 1   
   161  153  161 1   
   162  153  162 1   
   163  154  155 1   
   164  154  156 1   
   165  163  164 1   
   166  163  168 1   
   167  164  165 1   
   168  164  166 1   
   169  164  167 1   
   170  170  171 1   
   171  170  172 1   
   172  173  174 1   
   173  173  175 1   
@<TRIPOS>SUBSTRUCTURE
     1 MOL         1 TEMP              0 ****  ****    0 ROOT
