@<TRIPOS>MOLECULE
MOL
  189   185     1     0     0
SMALL
resp


@<TRIPOS>ATOM
      1 C1          0.3860   -2.4280    6.3830 c3        1 MOL     -0.399918
      2 C2          0.7890   -2.2160    4.9100 c         1 MOL      0.687501
      3 O1          1.0680   -1.0860    4.5330 o         1 MOL     -0.564313
      4 H1          1.0100   -1.8040    7.0230 hc        1 MOL      0.106326
      5 H2         -0.6600   -2.1540    6.5180 hc        1 MOL      0.106326
      6 H3          0.5250   -3.4760    6.6520 hc        1 MOL      0.106326
      7 N1          0.9500   -3.2770    4.1360 n         1 MOL     -0.593036
      8 C3          1.4600   -3.3380    2.8240 c3        1 MOL      0.527245
      9 C4          1.0960   -4.5820    2.0060 c         1 MOL      0.339932
     10 O2          0.9450   -5.6150    2.6030 o         1 MOL     -0.578877
     11 C5          3.0220   -3.2860    3.0830 c3        1 MOL     -0.208578
     12 C6          3.7850   -3.0930    1.7230 c         1 MOL      0.590885
     13 O3          3.1610   -2.5310    0.7630 o         1 MOL     -0.624511
     14 O4          4.9980   -3.4230    1.6090 o         1 MOL     -0.624511
     15 H4          0.7150   -4.1840    4.5270 hn        1 MOL      0.289390
     16 H5          1.2470   -2.4160    2.2800 h1        1 MOL     -0.175712
     17 H6          3.2930   -4.0860    3.7700 hc        1 MOL      0.032201
     18 H7          3.1850   -2.3230    3.5770 hc        1 MOL      0.032201
     19 N2          1.1360   -4.5370    0.6750 n         1 MOL      0.048464
     20 C7          1.1220   -5.6620   -0.2630 c3        1 MOL     -0.160790
     21 C8          2.0980   -5.4470   -1.4010 c         1 MOL      0.355125
     22 O5          2.3440   -6.4230   -2.1560 o         1 MOL     -0.569259
     23 C9         -0.2800   -5.8660   -0.9070 c3        1 MOL      0.286026
     24 C10        -0.9940   -4.5470   -1.4090 c3        1 MOL     -0.073908
     25 C11        -1.1740   -6.7290    0.0420 c3        1 MOL     -0.322481
     26 C12        -2.3700   -4.4720   -2.1010 c3        1 MOL     -0.184573
     27 H8          1.1840   -3.6250    0.2550 hn        1 MOL     -0.020934
     28 H9          1.3880   -6.5070    0.3850 h1        1 MOL      0.129246
     29 H10        -0.1570   -6.5690   -1.7300 hc        1 MOL     -0.021391
     30 H11        -0.2570   -3.9910   -1.9930 hc        1 MOL      0.028596
     31 H12        -1.0200   -3.8990   -0.5310 hc        1 MOL      0.028596
     32 H13        -1.8790   -7.3310   -0.5460 hc        1 MOL      0.060636
     33 H14        -0.5730   -7.4000    0.6560 hc        1 MOL      0.060636
     34 H15        -1.7140   -5.9720    0.6020 hc        1 MOL      0.060636
     35 H16        -3.0850   -5.0160   -1.4800 hc        1 MOL      0.054486
     36 H17        -2.7250   -3.4380   -2.1250 hc        1 MOL      0.054486
     37 H18        -2.3200   -4.8650   -3.1120 hc        1 MOL      0.054486
     38 N3          2.7790   -4.3020   -1.5940 n         1 MOL     -0.108391
     39 C13         3.6090   -4.0700   -2.7990 c3        1 MOL      0.038355
     40 C14         5.0560   -3.6310   -2.5920 c         1 MOL      0.276931
     41 O6          5.8520   -3.8620   -3.4870 o         1 MOL     -0.528859
     42 C15         2.9710   -3.0430   -3.7240 c3        1 MOL     -0.286377
     43 C16         2.5670   -1.7530   -3.0130 c         1 MOL      0.771391
     44 O7          3.3440   -1.2800   -2.1090 o         1 MOL     -0.702385
     45 O8          1.5610   -1.1020   -3.4300 o         1 MOL     -0.702385
     46 H19         2.7070   -3.5530   -0.9210 hn        1 MOL      0.145211
     47 H20         3.6510   -5.0000   -3.3720 h1        1 MOL      0.115609
     48 H21         2.2040   -3.5910   -4.2750 hc        1 MOL      0.084265
     49 H22         3.5650   -2.6860   -4.5640 hc        1 MOL      0.084265
     50 N4          5.4830   -3.1420   -1.4220 n         1 MOL      0.033255
     51 C17         6.8460   -2.7390   -1.1230 c3        1 MOL     -0.206299
     52 C18         7.3830   -1.4390   -1.7490 c         1 MOL      0.502632
     53 O9          8.5890   -1.2210   -1.9330 o         1 MOL     -0.605608
     54 H23         4.8360   -2.9690   -0.6680 hn        1 MOL     -0.000680
     55 H24         7.4770   -3.5560   -1.4830 h1        1 MOL      0.086053
     56 H25         6.8760   -2.6930   -0.0350 h1        1 MOL      0.086053
     57 N5          6.4870   -0.4860   -1.9860 n         1 MOL     -0.212449
     58 C19         6.7640    0.8650   -2.5300 c3        1 MOL     -0.051858
     59 C20         7.0760    1.9460   -1.3730 c         1 MOL      0.424208
     60 O10         7.3390    3.1230   -1.7420 o         1 MOL     -0.561948
     61 C21         5.5540    1.3460   -3.3420 c3        1 MOL     -0.133457
     62 C22         4.2910    1.6650   -2.4980 c         1 MOL      0.751752
     63 O11         4.3000    1.4220   -1.2760 o         1 MOL     -0.694063
     64 O12         3.2820    2.0560   -3.1210 o         1 MOL     -0.694063
     65 H26         5.5180   -0.6540   -1.7310 hn        1 MOL      0.209516
     66 H27         7.5940    0.9020   -3.2380 h1        1 MOL      0.116248
     67 H28         5.2720    0.5430   -4.0300 hc        1 MOL      0.042045
     68 H29         5.8780    2.1520   -3.9960 hc        1 MOL      0.042045
     69 N6          6.9530    1.6670   -0.1070 n         1 MOL     -0.335845
     70 C23         7.1640    2.6320    0.9770 c3        1 MOL     -0.086236
     71 C24         5.9130    3.5180    1.3490 c         1 MOL      0.464250
     72 O13         5.9760    4.3430    2.2670 o         1 MOL     -0.604670
     73 H30         6.5090    0.7910    0.1380 hn        1 MOL      0.277689
     74 H31         7.9130    3.3810    0.6850 h1        1 MOL      0.086167
     75 H32         7.5280    2.1030    1.8560 h1        1 MOL      0.086167
     76 N7          4.7830    3.3690    0.6420 n         1 MOL     -0.148224
     77 C25         3.5830    4.2530    0.8830 c3        1 MOL     -0.160383
     78 C26         2.3510    3.3800    1.1410 c         1 MOL      0.487423
     79 O14         2.2260    2.3580    0.5660 o         1 MOL     -0.529556
     80 C27         3.3020    5.1340   -0.3580 c3        1 MOL      0.101985
     81 C28         4.5340    6.0710   -0.6270 c3        1 MOL     -0.391188
     82 C29         4.1690    7.3190   -1.4530 c         1 MOL      0.690326
     83 N8          4.4080    7.3910   -2.7610 n         1 MOL     -0.808696
     84 O15         3.7150    8.3490   -0.9310 o         1 MOL     -0.597337
     85 H33         4.7740    2.5430    0.0690 hn        1 MOL      0.148378
     86 H34         3.7130    4.9350    1.7240 h1        1 MOL      0.104808
     87 H35         2.4170    5.7210   -0.1430 hc        1 MOL      0.039150
     88 H36         3.0640    4.6000   -1.2720 hc        1 MOL      0.039150
     89 H37         5.3740    5.4900   -1.0100 hc        1 MOL      0.132845
     90 H38         4.7660    6.4900    0.3530 hc        1 MOL      0.132845
     91 H39         5.0220    6.7080   -3.1870 hn        1 MOL      0.362022
     92 H40         3.9760    8.1530   -3.2670 hn        1 MOL      0.362022
     93 N9          1.4530    3.8890    1.9690 n         1 MOL     -0.417608
     94 C30         0.2270    3.0840    2.2450 c3        1 MOL      0.048991
     95 C31        -0.8930    3.5040    1.2210 c         1 MOL      0.502067
     96 O16        -1.2960    4.6230    1.0750 o         1 MOL     -0.585466
     97 C32        -0.1930    3.2900    3.6890 c3        1 MOL      0.044782
     98 C33        -1.3980    2.4670    4.1590 c3        1 MOL     -0.168190
     99 C34         0.9000    2.8430    4.6490 c3        1 MOL     -0.168190
    100 H41         1.6410    4.7060    2.5250 hn        1 MOL      0.288318
    101 H42         0.3790    2.0070    2.1550 h1        1 MOL      0.145434
    102 H43        -0.2920    4.3790    3.7610 hc        1 MOL      0.002736
    103 H44        -1.7740    2.9010    5.0880 hc        1 MOL      0.032793
    104 H45        -2.2350    2.5210    3.4680 hc        1 MOL      0.032793
    105 H46        -1.1890    1.4190    4.3400 hc        1 MOL      0.032793
    106 H47         0.7400    3.0850    5.6990 hc        1 MOL      0.032793
    107 H48         1.1650    1.7820    4.5480 hc        1 MOL      0.032793
    108 H49         1.8030    3.4220    4.4350 hc        1 MOL      0.032793
    109 N10        -1.4470    2.4800    0.5420 n         1 MOL     -0.105733
    110 C35        -2.6470    2.6010   -0.3880 c3        1 MOL      0.147057
    111 C36        -3.9490    2.4670    0.5470 c         1 MOL      0.123526
    112 O17        -3.9450    1.9510    1.7120 o         1 MOL     -0.249781
    113 C37        -2.6540    1.5430   -1.5040 c3        1 MOL     -0.392075
    114 C38        -3.7360    1.6520   -2.5630 c         1 MOL      0.757875
    115 N11        -3.8640    2.7520   -3.3220 n         1 MOL     -0.808790
    116 O18        -4.5430    0.7250   -2.6700 o         1 MOL     -0.527026
    117 H50        -0.9880    1.5840    0.5270 hn        1 MOL      0.020031
    118 H51        -2.5330    3.5670   -0.8820 h1        1 MOL      0.033023
    119 H52        -2.6450    0.5560   -1.0520 hc        1 MOL      0.146317
    120 H53        -1.6780    1.6510   -1.9820 hc        1 MOL      0.146317
    121 H54        -3.2590    3.5190   -3.0980 hn        1 MOL      0.365309
    122 H55        -4.6650    2.8440   -3.9340 hn        1 MOL      0.365309
    123 N12        -5.1690    2.8760   -0.0080 n         1 MOL     -0.204954
    124 C39        -6.4080    2.6220    0.6800 c3        1 MOL      0.055774
    125 C40        -6.5620    1.0920    1.0160 c         1 MOL      0.458400
    126 O19        -7.1410    0.7520    2.0340 o         1 MOL     -0.570409
    127 C41        -7.6060    3.2720   -0.0570 c3        1 MOL     -0.109254
    128 C42        -7.9600    2.7060   -1.4180 ca        1 MOL      0.191742
    129 C43        -8.9430    1.7550   -1.4390 ca        1 MOL     -0.302387
    130 C44        -7.4380    3.1680   -2.6180 ca        1 MOL     -0.302387
    131 C45        -9.2150    0.9770   -2.6030 ca        1 MOL     -0.176261
    132 C46        -7.8700    2.6410   -3.8550 ca        1 MOL     -0.176261
    133 C47        -8.6890    1.5070   -3.8260 ca        1 MOL      0.296347
    134 O20        -9.1580    1.0230   -5.0570 oh        1 MOL     -0.541558
    135 H56        -5.2080    3.2370   -0.9550 hn        1 MOL      0.137234
    136 H57        -6.3990    2.9310    1.7280 h1        1 MOL      0.050003
    137 H58        -7.2940    4.2990   -0.2510 hc        1 MOL      0.033603
    138 H59        -8.5080    3.3170    0.5510 hc        1 MOL      0.033603
    139 H60        -9.3910    1.4370   -0.5150 ha        1 MOL      0.158946
    140 H61        -6.7000    3.9400   -2.4520 ha        1 MOL      0.158946
    141 H62        -9.8920    0.1430   -2.6450 ha        1 MOL      0.145916
    142 H63        -7.5760    3.1770   -4.7460 ha        1 MOL      0.145916
    143 H64        -9.6930    0.2390   -4.9300 ho        1 MOL      0.406435
    144 N13        -6.0760    0.1540    0.1820 n         1 MOL     -0.156186
    145 C48        -6.3090   -1.2510    0.3710 c3        1 MOL     -0.037735
    146 C49        -5.3930   -1.7350    1.5640 c         1 MOL      0.300851
    147 O21        -5.6640   -2.7420    2.1250 o         1 MOL     -0.506815
    148 C50        -5.9480   -2.0030   -0.9750 c3        1 MOL     -0.193065
    149 C51        -7.1090   -1.6650   -1.9860 c3        1 MOL     -0.099556
    150 C52        -7.0700   -2.6050   -3.1780 c         1 MOL      0.740340
    151 O22        -7.8710   -3.5110   -3.2480 o         1 MOL     -0.754837
    152 O23        -6.2560   -2.3950   -4.0960 o         1 MOL     -0.754837
    153 H65        -5.6720    0.5030   -0.6700 hn        1 MOL      0.218206
    154 H66        -7.3190   -1.3980    0.7440 h1        1 MOL      0.105291
    155 H67        -5.8440   -3.0780   -0.8510 hc        1 MOL      0.110474
    156 H68        -5.0900   -1.4980   -1.4190 hc        1 MOL      0.110474
    157 H69        -7.1190   -0.6210   -2.2890 hc        1 MOL     -0.002826
    158 H70        -8.0640   -1.8470   -1.5030 hc        1 MOL     -0.002826
    159 N14        -4.2490   -1.1230    1.8400 n         1 MOL     -0.087150
    160 C53        -3.2650   -1.3490    2.9090 c3        1 MOL     -0.092471
    161 C54        -3.7250   -0.6980    4.2310 c         1 MOL      0.524325
    162 O24        -3.6440   -1.3000    5.2490 o         1 MOL     -0.555599
    163 C55        -1.9130   -0.8600    2.2980 c3        1 MOL      0.061120
    164 C56        -1.4960   -1.4580    0.9610 c3        1 MOL     -0.028073
    165 C57        -0.1820   -1.0040    0.4270 c         1 MOL      0.736779
    166 O25         0.2060    0.2010    0.7110 o         1 MOL     -0.658078
    167 O26         0.5900   -1.7510   -0.2620 o         1 MOL     -0.658078
    168 H71        -4.0100   -0.3050    1.3020 hn        1 MOL      0.094825
    169 H72        -3.2160   -2.4370    3.0740 h1        1 MOL      0.076654
    170 H73        -1.1900   -1.0620    3.0770 hc        1 MOL      0.009149
    171 H74        -1.8600    0.2330    2.2350 hc        1 MOL      0.009149
    172 H75        -2.2930   -1.2350    0.2490 hc        1 MOL     -0.015459
    173 H76        -1.3490   -2.5070    1.2270 hc        1 MOL     -0.015459
    174 N15        -4.3120    0.5760    4.1600 n         1 MOL     -0.120824
    175 C58        -4.7710    1.2960    5.3100 c3        1 MOL     -0.143259
    176 H77        -4.0150    2.0220    5.6100 h1        1 MOL      0.053337
    177 H78        -5.6980    1.8170    5.0680 h1        1 MOL      0.053337
    178 H79        -4.9500    0.5990    6.1290 h1        1 MOL      0.053337
    179 H80        -4.3360    0.9850    3.2330 hn        1 MOL      0.104763
    180 Ca1         2.6010   -0.1070    0.0350 Ca        1 MOL      1.806144
    181 O27         2.6340    0.0410    2.7330 oh        1 MOL     -0.926988
    182 H81         3.4730    0.0870    3.2030 ho        1 MOL      0.434015
    183 H82         2.0240   -0.3100    3.3750 ho        1 MOL      0.434015
    184 O28         5.3680   -0.8250    1.1470 oh        1 MOL     -0.926988
    185 H83         5.1530   -1.7600    1.0900 ho        1 MOL      0.434015
    186 H84         6.0220   -0.7660    1.8390 ho        1 MOL      0.434015
    187 O29         1.1980    1.0470   -1.9230 oh        1 MOL     -0.926988
    188 H85         1.9260    1.5380   -2.3040 ho        1 MOL      0.434015
    189 H86         1.0410    0.3330   -2.5350 ho        1 MOL      0.434015
@<TRIPOS>BOND
     1    1    2 1   
     2    1    4 1   
     3    1    5 1   
     4    1    6 1   
     5    2    3 2   
     6    2    7 1   
     7    7    8 1   
     8    7   15 1   
     9    8    9 1   
    10    8   11 1   
    11    8   16 1   
    12    9   10 2   
    13    9   19 1   
    14   11   12 1   
    15   11   17 1   
    16   11   18 1   
    17   12   13 1   
    18   12   14 1   
    19   19   20 1   
    20   19   27 1   
    21   20   21 1   
    22   20   23 1   
    23   20   28 1   
    24   21   22 2   
    25   21   38 1   
    26   23   24 1   
    27   23   25 1   
    28   23   29 1   
    29   24   26 1   
    30   24   30 1   
    31   24   31 1   
    32   25   32 1   
    33   25   33 1   
    34   25   34 1   
    35   26   35 1   
    36   26   36 1   
    37   26   37 1   
    38   38   39 1   
    39   38   46 1   
    40   39   40 1   
    41   39   42 1   
    42   39   47 1   
    43   40   41 2   
    44   40   50 1   
    45   42   43 1   
    46   42   48 1   
    47   42   49 1   
    48   43   44 1   
    49   43   45 1   
    50   50   51 1   
    51   50   54 1   
    52   51   52 1   
    53   51   55 1   
    54   51   56 1   
    55   52   53 2   
    56   52   57 1   
    57   57   58 1   
    58   57   65 1   
    59   58   59 1   
    60   58   61 1   
    61   58   66 1   
    62   59   60 2   
    63   59   69 1   
    64   61   62 1   
    65   61   67 1   
    66   61   68 1   
    67   62   63 1   
    68   62   64 1   
    69   69   70 1   
    70   69   73 1   
    71   70   71 1   
    72   70   74 1   
    73   70   75 1   
    74   71   72 2   
    75   71   76 1   
    76   76   77 1   
    77   76   85 1   
    78   77   78 1   
    79   77   80 1   
    80   77   86 1   
    81   78   79 2   
    82   78   93 1   
    83   80   81 1   
    84   80   87 1   
    85   80   88 1   
    86   81   82 1   
    87   81   89 1   
    88   81   90 1   
    89   82   83 1   
    90   82   84 2   
    91   83   91 1   
    92   83   92 1   
    93   93   94 1   
    94   93  100 1   
    95   94   95 1   
    96   94   97 1   
    97   94  101 1   
    98   95   96 2   
    99   95  109 1   
   100   97   98 1   
   101   97   99 1   
   102   97  102 1   
   103   98  103 1   
   104   98  104 1   
   105   98  105 1   
   106   99  106 1   
   107   99  107 1   
   108   99  108 1   
   109  109  110 1   
   110  109  117 1   
   111  110  111 1   
   112  110  113 1   
   113  110  118 1   
   114  111  112 2   
   115  111  123 1   
   116  113  114 1   
   117  113  119 1   
   118  113  120 1   
   119  114  115 1   
   120  114  116 2   
   121  115  121 1   
   122  115  122 1   
   123  123  124 1   
   124  123  135 1   
   125  124  125 1   
   126  124  127 1   
   127  124  136 1   
   128  125  126 2   
   129  125  144 1   
   130  127  128 1   
   131  127  137 1   
   132  127  138 1   
   133  128  129 ar  
   134  128  130 ar  
   135  129  131 ar  
   136  129  139 1   
   137  130  132 ar  
   138  130  140 1   
   139  131  133 ar  
   140  131  141 1   
   141  132  133 ar  
   142  132  142 1   
   143  133  134 1   
   144  134  143 1   
   145  144  145 1   
   146  144  153 1   
   147  145  146 1   
   148  145  148 1   
   149  145  154 1   
   150  146  147 2   
   151  146  159 1   
   152  148  149 1   
   153  148  155 1   
   154  148  156 1   
   155  149  150 1   
   156  149  157 1   
   157  149  158 1   
   158  150  151 1   
   159  150  152 1   
   160  159  160 1   
   161  159  168 1   
   162  160  161 1   
   163  160  163 1   
   164  160  169 1   
   165  161  162 2   
   166  161  174 1   
   167  163  164 1   
   168  163  170 1   
   169  163  171 1   
   170  164  165 1   
   171  164  172 1   
   172  164  173 1   
   173  165  166 1   
   174  165  167 1   
   175  174  175 1   
   176  174  179 1   
   177  175  176 1   
   178  175  177 1   
   179  175  178 1   
   180  181  182 1   
   181  181  183 1   
   182  184  185 1   
   183  184  186 1   
   184  187  188 1   
   185  187  189 1   
@<TRIPOS>SUBSTRUCTURE
     1 MOL         1 TEMP              0 ****  ****    0 ROOT
