@<TRIPOS>MOLECULE
MOL
  175   173     1     0     0
SMALL
resp


@<TRIPOS>ATOM
      1 C1          0.9160    4.1890    5.2880 c3        1 MOL     -0.296720
      2 C2          0.3120    4.0790    3.8970 c         1 MOL      0.667021
      3 O1          0.9300    4.4260    2.8530 o         1 MOL     -0.546417
      4 H1          1.1280    5.2350    5.5100 hc        1 MOL      0.071831
      5 H2          0.2110    3.7980    6.0230 hc        1 MOL      0.071831
      6 H3          1.8410    3.6150    5.3300 hc        1 MOL      0.071831
      7 N1         -0.9310    3.7280    3.8200 n         1 MOL     -0.533240
      8 C3         -1.8240    3.5630    2.6750 c3        1 MOL      0.141632
      9 C4         -2.0250    4.8790    1.8510 c         1 MOL      0.599908
     10 O2         -2.0460    5.9670    2.4400 o         1 MOL     -0.566289
     11 C5         -3.1910    2.9000    2.9570 c3        1 MOL     -0.390061
     12 C6         -3.9410    2.5870    1.6240 c         1 MOL      0.756191
     13 O3         -3.2790    1.9460    0.7890 o         1 MOL     -0.680850
     14 O4         -5.1110    2.9960    1.3840 o         1 MOL     -0.680850
     15 H4         -1.4180    3.5140    4.6760 hn        1 MOL      0.299731
     16 H5         -1.3700    2.7990    2.0410 h1        1 MOL      0.046939
     17 H6         -3.8120    3.6380    3.4750 hc        1 MOL      0.065470
     18 H7         -3.1000    1.9770    3.5290 hc        1 MOL      0.065470
     19 N2         -2.1290    4.7230    0.5210 n         1 MOL     -0.476164
     20 C7         -2.4740    5.6870   -0.5100 c3        1 MOL      0.235997
     21 C8         -3.1240    5.0520   -1.6870 c         1 MOL      0.384396
     22 O5         -3.1140    5.5530   -2.8170 o         1 MOL     -0.536571
     23 C9         -1.1290    6.4650   -0.8670 c3        1 MOL     -0.380091
     24 H8         -1.9790    3.7670    0.2420 hn        1 MOL      0.371211
     25 H9         -3.1850    6.3670   -0.0350 h1        1 MOL      0.049409
     26 H10        -0.4990    5.9640   -1.6000 hc        1 MOL      0.099170
     27 H11        -1.3880    7.2910   -1.5430 hc        1 MOL      0.099170
     28 H12        -0.5790    6.9110   -0.0490 hc        1 MOL      0.099170
     29 N3         -3.7700    3.8630   -1.5980 n         1 MOL     -0.110049
     30 C10        -4.5780    3.3350   -2.7650 c3        1 MOL     -0.075320
     31 C11        -5.9270    2.7100   -2.3700 c         1 MOL      0.346415
     32 O6         -6.8600    2.7290   -3.1460 o         1 MOL     -0.547606
     33 C12        -3.7910    2.3110   -3.6550 c3        1 MOL      0.009270
     34 C13        -3.1390    1.3400   -2.6950 c         1 MOL      0.581589
     35 O7         -1.8580    1.2450   -2.6420 o         1 MOL     -0.687181
     36 O8         -3.8340    0.6020   -1.9560 o         1 MOL     -0.687181
     37 H13        -3.8120    3.4560   -0.6800 hn        1 MOL      0.015975
     38 H14        -4.7080    4.1060   -3.5240 h1        1 MOL      0.096948
     39 H15        -2.9580    2.7620   -4.2010 hc        1 MOL      0.023910
     40 H16        -4.3350    1.7730   -4.4200 hc        1 MOL      0.023910
     41 N4         -6.0450    2.1670   -1.1880 n         1 MOL     -0.043172
     42 C14        -7.3080    1.6660   -0.6290 c3        1 MOL     -0.210476
     43 C15        -7.5210    0.2040   -1.0000 c         1 MOL      0.506172
     44 O9         -8.6770   -0.2510   -0.9620 o         1 MOL     -0.613092
     45 H17        -5.2010    2.1690   -0.6230 hn        1 MOL      0.180480
     46 H18        -8.1970    2.1780   -0.9850 h1        1 MOL      0.110115
     47 H19        -7.2580    1.6450    0.4580 h1        1 MOL      0.110115
     48 N5         -6.4890   -0.5460   -1.3570 n         1 MOL     -0.205411
     49 C16        -6.5290   -1.9230   -1.9290 c3        1 MOL      0.039152
     50 C17        -6.5130   -3.0300   -0.8850 c         1 MOL      0.429131
     51 O10        -6.4930   -4.2430   -1.2260 o         1 MOL     -0.524285
     52 C18        -5.4300   -2.0780   -2.9820 c3        1 MOL     -0.370733
     53 C19        -4.0430   -2.2960   -2.5300 c         1 MOL      0.800848
     54 N6         -3.1080   -2.1420   -3.3980 n         1 MOL     -0.753591
     55 O11        -3.6950   -2.5930   -1.4020 o         1 MOL     -0.538142
     56 H20        -5.6010   -0.0710   -1.3040 hn        1 MOL      0.164268
     57 H21        -7.5180   -2.0430   -2.3770 h1        1 MOL      0.113503
     58 H22        -5.4740   -1.1760   -3.5930 hc        1 MOL      0.101934
     59 H23        -5.7360   -3.0040   -3.4870 hc        1 MOL      0.101934
     60 H24        -3.3200   -1.6570   -4.2540 hn        1 MOL      0.340873
     61 H25        -2.1560   -2.1680   -3.0630 hn        1 MOL      0.340873
     62 N7         -6.3870   -2.7210    0.4150 n         1 MOL     -0.361092
     63 C20        -6.4950   -3.6980    1.5510 c3        1 MOL     -0.123083
     64 C21        -5.1510   -4.2380    1.9930 c         1 MOL      0.464181
     65 O12        -5.1010   -5.0610    2.9270 o         1 MOL     -0.588709
     66 H26        -6.0450   -1.8190    0.6750 hn        1 MOL      0.219086
     67 H27        -7.1090   -4.5280    1.1890 h1        1 MOL      0.110805
     68 H28        -6.9640   -3.2680    2.4370 h1        1 MOL      0.110805
     69 N8         -4.0360   -3.8580    1.3900 n         1 MOL     -0.147107
     70 C22        -2.6930   -4.5220    1.4950 c3        1 MOL     -0.355111
     71 C23        -1.5270   -3.5170    1.5390 c         1 MOL      0.716038
     72 O13        -1.7270   -2.3760    1.0670 o         1 MOL     -0.695226
     73 C24        -2.4590   -5.6070    0.4800 c3        1 MOL      0.488643
     74 C25        -3.2330   -6.9460    0.8110 c3        1 MOL     -0.407631
     75 O14        -2.7820   -5.1030   -0.8250 oh        1 MOL     -0.563668
     76 H29        -4.0450   -3.1220    0.6970 hn        1 MOL      0.298657
     77 H30        -2.6600   -5.1010    2.4200 h1        1 MOL      0.107517
     78 H31        -1.3840   -5.8090    0.4600 h1        1 MOL     -0.026956
     79 H32        -2.6810   -4.1510   -0.7450 ho        1 MOL      0.294917
     80 H33        -4.3090   -6.8060    0.6880 hc        1 MOL      0.105411
     81 H34        -2.8980   -7.8050    0.2290 hc        1 MOL      0.105411
     82 H35        -3.0760   -7.3260    1.8210 hc        1 MOL      0.105411
     83 N9         -0.3850   -3.7990    2.1590 n         1 MOL     -0.501535
     84 C26         0.8500   -3.0230    2.0440 c3        1 MOL     -0.057656
     85 C27         1.4360   -3.3620    0.6890 c         1 MOL      0.473839
     86 O15         1.7080   -4.4780    0.2790 o         1 MOL     -0.593016
     87 C28         1.8110   -3.2740    3.1210 c3        1 MOL      0.248745
     88 C29         1.2490   -2.6580    4.3370 c3        1 MOL      0.072402
     89 C30         3.2480   -2.7950    2.8410 c3        1 MOL     -0.302443
     90 C31         2.2360   -2.6500    5.5350 c3        1 MOL     -0.128934
     91 H36        -0.3820   -4.7100    2.5740 hn        1 MOL      0.277623
     92 H37         0.5500   -1.9810    1.9800 h1        1 MOL      0.071814
     93 H38         1.8080   -4.3440    3.3290 hc        1 MOL     -0.026775
     94 H39         0.2870   -3.1290    4.5620 hc        1 MOL     -0.029015
     95 H40         1.0000   -1.6220    4.1020 hc        1 MOL     -0.029015
     96 H41         3.5210   -3.2070    1.8700 hc        1 MOL      0.069775
     97 H42         3.1610   -1.7060    2.8540 hc        1 MOL      0.069775
     98 H43         3.8650   -3.4100    3.4990 hc        1 MOL      0.069775
     99 H44         1.6460   -2.5800    6.4540 hc        1 MOL      0.020240
    100 H45         2.7250   -3.6090    5.7170 hc        1 MOL      0.020240
    101 H46         2.9790   -1.8590    5.5420 hc        1 MOL      0.020240
    102 N10         1.7980   -2.3170    0.0370 n         1 MOL     -0.166230
    103 C32         2.6010   -2.2200   -1.1760 c3        1 MOL     -0.001608
    104 C33         4.0420   -1.7630   -0.7790 c         1 MOL      0.252238
    105 O16         4.2600   -1.0570    0.2430 o         1 MOL     -0.253027
    106 C34         1.8700   -1.3160   -2.1840 c3        1 MOL     -0.097449
    107 C35         0.4800   -1.7100   -2.6250 c         1 MOL      0.596069
    108 O17        -0.5060   -1.4920   -1.8240 o         1 MOL     -0.634388
    109 O18         0.3830   -2.0860   -3.8210 o         1 MOL     -0.634388
    110 H47         1.5670   -1.4440    0.4910 hn        1 MOL      0.253595
    111 H48         2.6440   -3.2260   -1.5920 h1        1 MOL      0.080735
    112 H49         2.4920   -1.2190   -3.0810 hc        1 MOL      0.032367
    113 H50         1.8010   -0.3090   -1.7880 hc        1 MOL      0.032367
    114 N11         4.9830   -1.9060   -1.6760 n         1 MOL     -0.400122
    115 C36         6.3210   -1.4550   -1.4590 c3        1 MOL      0.368932
    116 C37         6.5060    0.1040   -1.2920 c         1 MOL      0.147197
    117 O19         7.4440    0.4280   -0.5240 o         1 MOL     -0.482908
    118 C38         7.1920   -1.9420   -2.5930 c3        1 MOL     -0.276608
    119 C39         8.6970   -1.9130   -2.3580 ca        1 MOL      0.190209
    120 C40         9.3500   -2.9950   -1.6780 ca        1 MOL     -0.256128
    121 C41         9.4630   -0.8250   -2.8380 ca        1 MOL     -0.256128
    122 C42        10.6980   -2.8680   -1.3810 ca        1 MOL     -0.037497
    123 C43        10.8300   -0.7640   -2.5690 ca        1 MOL     -0.037497
    124 C44        11.4170   -1.7610   -1.8220 ca        1 MOL     -0.147929
    125 H51         4.8540   -2.5060   -2.4800 hn        1 MOL      0.272117
    126 H52         6.6600   -1.9550   -0.5460 h1        1 MOL      0.032286
    127 H53         7.0020   -1.3590   -3.4990 hc        1 MOL      0.065647
    128 H54         6.9910   -2.9990   -2.7330 hc        1 MOL      0.065647
    129 H55         8.7400   -3.8010   -1.2910 ha        1 MOL      0.146761
    130 H56         8.9420    0.0070   -3.2950 ha        1 MOL      0.146761
    131 H57        11.2640   -3.6010   -0.8370 ha        1 MOL      0.092882
    132 H58        11.3390    0.0420   -3.0640 ha        1 MOL      0.092882
    133 H59        12.4840   -1.6560   -1.7140 ha        1 MOL      0.093627
    134 N12         5.7550    1.0640   -1.7730 n         1 MOL      0.108886
    135 C45         6.0740    2.5300   -1.4770 c3        1 MOL     -0.016733
    136 C46         5.5680    2.9440   -0.0900 c         1 MOL      0.177807
    137 O20         5.9990    4.0070    0.4070 o         1 MOL     -0.501812
    138 C47         5.1670    3.2970   -2.4290 c3        1 MOL      0.029303
    139 C48         5.0310    2.3200   -3.6290 c3        1 MOL     -0.325644
    140 C49         4.8480    0.9270   -2.9180 c3        1 MOL     -0.024787
    141 H60         7.1500    2.6510   -1.5960 h1        1 MOL      0.109926
    142 H61         4.1900    3.4210   -1.9820 hc        1 MOL      0.039943
    143 H62         5.7010    4.2050   -2.7100 hc        1 MOL      0.039943
    144 H63         4.1310    2.5120   -4.2100 hc        1 MOL      0.108286
    145 H64         6.0070    2.5120   -4.0580 hc        1 MOL      0.108286
    146 H65         3.8040    0.7590   -2.6530 h1        1 MOL      0.064998
    147 H66         5.1730    0.1800   -3.6460 h1        1 MOL      0.064998
    148 N13         4.7730    2.0790    0.5350 n         1 MOL      0.247104
    149 C50         4.1300    2.2750    1.8010 c3        1 MOL     -0.043666
    150 C51         5.0400    1.6150    2.8150 c         1 MOL      0.484329
    151 O21         5.3540    2.2790    3.7470 o         1 MOL     -0.552314
    152 C52         2.7770    1.6950    1.7280 c3        1 MOL      0.020874
    153 C53         2.0140    2.0860    0.4890 c3        1 MOL     -0.031352
    154 C54         0.6260    1.4930    0.3820 c         1 MOL      0.639344
    155 O22        -0.3060    2.1860   -0.1090 o         1 MOL     -0.733788
    156 O23         0.4050    0.3490    0.8820 o         1 MOL     -0.733788
    157 H67         4.6500    1.1560    0.1670 hn        1 MOL     -0.160177
    158 H68         4.0680    3.3390    2.0200 h1        1 MOL      0.062341
    159 H69         2.2000    2.0760    2.5800 hc        1 MOL     -0.022203
    160 H70         3.0200    0.6360    1.6600 hc        1 MOL     -0.022203
    161 H71         2.5650    1.8330   -0.4270 hc        1 MOL      0.043314
    162 H72         1.9140    3.1560    0.6200 hc        1 MOL      0.043314
    163 N14         5.5730    0.4130    2.5950 n         1 MOL     -0.113134
    164 C55         6.6480   -0.1950    3.3610 c3        1 MOL     -0.118860
    165 H73         6.6270    0.1880    4.3820 h1        1 MOL      0.058155
    166 H74         6.5190   -1.2770    3.3770 h1        1 MOL      0.058155
    167 H75         7.6070    0.0500    2.9020 h1        1 MOL      0.058155
    168 H76         5.0630   -0.1500    1.9290 hn        1 MOL      0.054760
    169 Ca1        -1.9100   -0.0180   -0.2550 Ca        1 MOL      1.681625
    170 O24        -4.0830   -0.9180    1.4170 oh        1 MOL     -0.677769
    171 H77        -3.9030   -1.2390    2.2890 ho        1 MOL      0.346765
    172 H78        -4.7100   -0.2110    1.5450 ho        1 MOL      0.346765
    173 O25        -1.6550    0.2100    2.6040 oh        1 MOL     -0.677769
    174 H79        -1.6160    0.5230    3.5070 ho        1 MOL      0.346765
    175 H80        -0.7640    0.3300    2.2590 ho        1 MOL      0.346765
@<TRIPOS>BOND
     1    1    2 1   
     2    1    4 1   
     3    1    5 1   
     4    1    6 1   
     5    2    3 2   
     6    2    7 1   
     7    7    8 1   
     8    7   15 1   
     9    8    9 1   
    10    8   11 1   
    11    8   16 1   
    12    9   10 2   
    13    9   19 1   
    14   11   12 1   
    15   11   17 1   
    16   11   18 1   
    17   12   13 1   
    18   12   14 1   
    19   19   20 1   
    20   19   24 1   
    21   20   21 1   
    22   20   23 1   
    23   20   25 1   
    24   21   22 2   
    25   21   29 1   
    26   23   26 1   
    27   23   27 1   
    28   23   28 1   
    29   29   30 1   
    30   29   37 1   
    31   30   31 1   
    32   30   33 1   
    33   30   38 1   
    34   31   32 2   
    35   31   41 1   
    36   33   34 1   
    37   33   39 1   
    38   33   40 1   
    39   34   35 1   
    40   34   36 1   
    41   41   42 1   
    42   41   45 1   
    43   42   43 1   
    44   42   46 1   
    45   42   47 1   
    46   43   44 2   
    47   43   48 1   
    48   48   49 1   
    49   48   56 1   
    50   49   50 1   
    51   49   52 1   
    52   49   57 1   
    53   50   51 2   
    54   50   62 1   
    55   52   53 1   
    56   52   58 1   
    57   52   59 1   
    58   53   54 1   
    59   53   55 2   
    60   54   60 1   
    61   54   61 1   
    62   62   63 1   
    63   62   66 1   
    64   63   64 1   
    65   63   67 1   
    66   63   68 1   
    67   64   65 2   
    68   64   69 1   
    69   69   70 1   
    70   69   76 1   
    71   70   71 1   
    72   70   73 1   
    73   70   77 1   
    74   71   72 2   
    75   71   83 1   
    76   73   74 1   
    77   73   75 1   
    78   73   78 1   
    79   74   80 1   
    80   74   81 1   
    81   74   82 1   
    82   75   79 1   
    83   83   84 1   
    84   83   91 1   
    85   84   85 1   
    86   84   87 1   
    87   84   92 1   
    88   85   86 2   
    89   85  102 1   
    90   87   88 1   
    91   87   89 1   
    92   87   93 1   
    93   88   90 1   
    94   88   94 1   
    95   88   95 1   
    96   89   96 1   
    97   89   97 1   
    98   89   98 1   
    99   90   99 1   
   100   90  100 1   
   101   90  101 1   
   102  102  103 1   
   103  102  110 1   
   104  103  104 1   
   105  103  106 1   
   106  103  111 1   
   107  104  105 2   
   108  104  114 1   
   109  106  107 1   
   110  106  112 1   
   111  106  113 1   
   112  107  108 1   
   113  107  109 1   
   114  114  115 1   
   115  114  125 1   
   116  115  116 1   
   117  115  118 1   
   118  115  126 1   
   119  116  117 2   
   120  116  134 1   
   121  118  119 1   
   122  118  127 1   
   123  118  128 1   
   124  119  120 ar  
   125  119  121 ar  
   126  120  122 ar  
   127  120  129 1   
   128  121  123 ar  
   129  121  130 1   
   130  122  124 ar  
   131  122  131 1   
   132  123  124 ar  
   133  123  132 1   
   134  124  133 1   
   135  134  135 1   
   136  134  140 1   
   137  135  136 1   
   138  135  138 1   
   139  135  141 1   
   140  136  137 2   
   141  136  148 1   
   142  138  139 1   
   143  138  142 1   
   144  138  143 1   
   145  139  140 1   
   146  139  144 1   
   147  139  145 1   
   148  140  146 1   
   149  140  147 1   
   150  148  149 1   
   151  148  157 1   
   152  149  150 1   
   153  149  152 1   
   154  149  158 1   
   155  150  151 2   
   156  150  163 1   
   157  152  153 1   
   158  152  159 1   
   159  152  160 1   
   160  153  154 1   
   161  153  161 1   
   162  153  162 1   
   163  154  155 1   
   164  154  156 1   
   165  163  164 1   
   166  163  168 1   
   167  164  165 1   
   168  164  166 1   
   169  164  167 1   
   170  170  171 1   
   171  170  172 1   
   172  173  174 1   
   173  173  175 1   
@<TRIPOS>SUBSTRUCTURE
     1 MOL         1 TEMP              0 ****  ****    0 ROOT
