@<TRIPOS>MOLECULE
MOL
  186   183     1     0     0
SMALL
resp


@<TRIPOS>ATOM
      1 C1          0.3280   -2.3210    5.9530 c3        1 MOL     -0.322139
      2 C2          0.8150   -2.5570    4.4990 c         1 MOL      0.757629
      3 O1          0.1870   -3.3170    3.7190 o         1 MOL     -0.612996
      4 H1          0.0400   -3.2720    6.3980 hc        1 MOL      0.077676
      5 H2          1.1330   -1.8740    6.5370 hc        1 MOL      0.077676
      6 H3         -0.5310   -1.6500    5.9450 hc        1 MOL      0.077676
      7 N1          1.9440   -1.9720    4.1010 n         1 MOL     -0.580613
      8 C3          2.5370   -1.8880    2.7680 c3        1 MOL      0.090760
      9 C4          3.0810   -3.2790    2.3120 c         1 MOL      0.542735
     10 O2          3.9650   -3.8300    2.9320 o         1 MOL     -0.561281
     11 C5          3.5540   -0.7890    2.8050 c3        1 MOL     -0.144856
     12 C6          4.2310   -0.4400    1.4790 c         1 MOL      0.756335
     13 O3          5.0560    0.5510    1.4680 o         1 MOL     -0.779119
     14 O4          3.7880   -0.9980    0.4420 o         1 MOL     -0.779119
     15 H4          2.2700   -1.2910    4.7680 hn        1 MOL      0.286799
     16 H5          1.7540   -1.6260    2.0540 h1        1 MOL     -0.002560
     17 H6          4.2800   -0.8760    3.6100 hc        1 MOL      0.044144
     18 H7          2.9440    0.0640    3.0980 hc        1 MOL      0.044144
     19 N2          2.6230   -3.6980    1.1130 n         1 MOL     -0.221277
     20 C7          2.7700   -5.0620    0.5840 c3        1 MOL     -0.289031
     21 C8          4.0060   -5.1620   -0.3180 c         1 MOL      0.600501
     22 O5          4.8130   -6.0910   -0.1710 o         1 MOL     -0.575656
     23 C9          1.4370   -5.7390    0.0120 c3        1 MOL      0.273382
     24 C10         0.2570   -5.6480    0.9880 c3        1 MOL      0.195768
     25 C11         1.7830   -7.2480   -0.3850 c3        1 MOL     -0.432575
     26 C12        -1.1230   -6.0340    0.3810 c3        1 MOL     -0.132172
     27 H8          1.9420   -3.0910    0.6650 hn        1 MOL      0.244242
     28 H9          3.0660   -5.6570    1.4370 h1        1 MOL      0.114949
     29 H10         1.0110   -5.2370   -0.8540 hc        1 MOL     -0.036469
     30 H11         0.1890   -4.6110    1.3210 hc        1 MOL     -0.047177
     31 H12         0.5030   -6.3650    1.7640 hc        1 MOL     -0.047177
     32 H13         2.3500   -7.6230    0.4640 hc        1 MOL      0.093081
     33 H14         0.9440   -7.9020   -0.6040 hc        1 MOL      0.093081
     34 H15         2.4890   -7.2220   -1.2230 hc        1 MOL      0.093081
     35 H16        -0.9830   -6.9760   -0.1530 hc        1 MOL      0.018086
     36 H17        -1.8140   -6.1530    1.2160 hc        1 MOL      0.018086
     37 H18        -1.6130   -5.2320   -0.1730 hc        1 MOL      0.018086
     38 N3          4.1820   -4.1640   -1.1750 n         1 MOL     -0.361792
     39 C13         5.4530   -4.1850   -1.9520 c3        1 MOL     -0.049187
     40 C14         6.6080   -3.4480   -1.2480 c         1 MOL      0.392278
     41 O6          7.7820   -3.6320   -1.5750 o         1 MOL     -0.552273
     42 C15         5.2020   -3.5260   -3.2890 c3        1 MOL     -0.023317
     43 C16         4.8320   -2.0050   -3.1720 c         1 MOL      0.610570
     44 O7          5.7390   -1.1910   -3.4300 o         1 MOL     -0.655724
     45 O8          3.6850   -1.7190   -2.7710 o         1 MOL     -0.655724
     46 H19         3.5610   -3.3630   -1.1930 hn        1 MOL      0.196480
     47 H20         5.7630   -5.2120   -2.0890 h1        1 MOL      0.111541
     48 H21         4.4390   -4.0520   -3.8620 hc        1 MOL     -0.003432
     49 H22         6.0040   -3.6740   -4.0020 hc        1 MOL     -0.003432
     50 N4          6.2960   -2.6920   -0.2130 n         1 MOL     -0.077298
     51 C17         7.2480   -2.0260    0.6930 c3        1 MOL     -0.275233
     52 C18         7.7250   -0.5670    0.4150 c         1 MOL      0.528008
     53 O9          8.7020   -0.0430    0.9410 o         1 MOL     -0.596523
     54 H23         5.3220   -2.6070    0.0370 hn        1 MOL      0.208471
     55 H24         8.1740   -2.5990    0.7290 h1        1 MOL      0.110317
     56 H25         6.7960   -2.1220    1.6690 h1        1 MOL      0.110317
     57 N5          7.0620    0.0580   -0.5560 n         1 MOL     -0.074521
     58 C19         7.5590    1.3100   -1.1850 c3        1 MOL     -0.151095
     59 C20         7.6350    2.4540   -0.1810 c         1 MOL      0.560833
     60 O10         8.6110    3.2340   -0.1760 o         1 MOL     -0.608951
     61 C21         6.7160    1.6900   -2.4140 c3        1 MOL     -0.130632
     62 C22         5.2470    1.9390   -2.3100 c         1 MOL      0.689146
     63 O11         4.5390    1.3070   -1.5340 o         1 MOL     -0.734175
     64 O12         4.7390    2.8330   -3.0590 o         1 MOL     -0.734175
     65 H26         6.1820   -0.3780   -0.8200 hn        1 MOL      0.149473
     66 H27         8.5520    1.0290   -1.5440 h1        1 MOL      0.101735
     67 H28         6.8350    0.9890   -3.2450 hc        1 MOL      0.059200
     68 H29         7.1750    2.6230   -2.7470 hc        1 MOL      0.059200
     69 N6          6.7220    2.6410    0.7540 n         1 MOL     -0.224833
     70 C23         6.5400    3.8050    1.6310 c3        1 MOL     -0.100809
     71 C24         5.2020    4.4570    1.6330 c         1 MOL      0.594969
     72 O13         4.9570    5.3850    2.3900 o         1 MOL     -0.611361
     73 H30         6.0250    1.9310    0.9410 hn        1 MOL      0.277619
     74 H31         7.2210    4.5980    1.3190 h1        1 MOL      0.065520
     75 H32         6.7930    3.5990    2.6630 h1        1 MOL      0.065520
     76 N7          4.2140    3.8750    0.8960 n         1 MOL     -0.467990
     77 C25         2.8580    4.4740    0.9080 c3        1 MOL      0.186835
     78 C26         1.8020    3.3410    0.8150 c         1 MOL      0.613327
     79 O14         1.9810    2.3680    0.0880 o         1 MOL     -0.564212
     80 C27         2.5700    5.4110   -0.2860 c3        1 MOL     -0.067983
     81 C28         2.9270    6.9020   -0.1310 c3        1 MOL     -0.274110
     82 C29         2.6130    7.7150   -1.3530 c         1 MOL      0.777359
     83 N8          3.2730    8.8020   -1.5100 n         1 MOL     -0.830220
     84 O15         1.7460    7.4630   -2.1420 o         1 MOL     -0.595728
     85 H33         4.4730    3.0970    0.3050 hn        1 MOL      0.275302
     86 H34         2.7720    5.0110    1.8560 h1        1 MOL      0.020388
     87 H35         1.5220    5.3060   -0.5800 hc        1 MOL      0.056534
     88 H36         3.1500    5.0040   -1.1100 hc        1 MOL      0.056534
     89 H37         3.9950    7.0390    0.0820 hc        1 MOL      0.071260
     90 H38         2.4010    7.3460    0.7200 hc        1 MOL      0.071260
     91 H39         3.9510    9.1340   -0.8390 hn        1 MOL      0.352657
     92 H40         3.1440    9.3400   -2.3540 hn        1 MOL      0.352657
     93 N9          0.6350    3.5690    1.4730 n         1 MOL     -0.566159
     94 C30        -0.4160    2.6310    1.8950 c3        1 MOL      0.088603
     95 C31        -1.7180    2.9570    1.1570 c         1 MOL      0.464618
     96 O16        -2.4260    3.9240    1.4200 o         1 MOL     -0.536611
     97 C32        -0.5470    2.6190    3.4360 c3        1 MOL      0.135346
     98 C33        -1.7090    1.8210    3.9520 c3        1 MOL     -0.278725
     99 C34         0.6140    1.8850    4.1140 c3        1 MOL     -0.278725
    100 H41         0.5180    4.5200    1.8100 hn        1 MOL      0.288832
    101 H42        -0.1470    1.6200    1.5970 h1        1 MOL      0.119034
    102 H43        -0.6170    3.6640    3.7410 hc        1 MOL     -0.004113
    103 H44        -1.7320    1.7890    5.0410 hc        1 MOL      0.066247
    104 H45        -2.6240    2.3220    3.6280 hc        1 MOL      0.066247
    105 H46        -1.5850    0.7950    3.6170 hc        1 MOL      0.066247
    106 H47         1.5170    2.4390    3.8650 hc        1 MOL      0.066247
    107 H48         0.5270    1.8980    5.1900 hc        1 MOL      0.066247
    108 H49         0.7560    0.8480    3.8050 hc        1 MOL      0.066247
    109 N10        -1.9030    2.1700    0.0730 n         1 MOL     -0.170717
    110 C35        -3.0390    2.3340   -0.7980 c3        1 MOL      0.000080
    111 C36        -4.2780    2.0220    0.0180 c         1 MOL      0.357427
    112 O17        -4.2050    1.1600    0.9480 o         1 MOL     -0.314593
    113 C37        -2.8280    1.4930   -2.0360 c3        1 MOL     -0.374330
    114 C38        -3.9180    1.7400   -3.0650 c         1 MOL      0.676322
    115 N11        -3.9460    2.8260   -3.8120 n         1 MOL     -0.774556
    116 O18        -4.8750    0.9700   -3.0770 o         1 MOL     -0.540801
    117 H50        -1.1650    1.5280   -0.1930 hn        1 MOL      0.138695
    118 H51        -3.1690    3.3670   -1.1040 h1        1 MOL      0.050334
    119 H52        -2.7450    0.4460   -1.7510 hc        1 MOL      0.158731
    120 H53        -1.9010    1.7520   -2.5560 hc        1 MOL      0.158731
    121 H54        -3.1990    3.5130   -3.8040 hn        1 MOL      0.365848
    122 H55        -4.7620    3.0120   -4.3810 hn        1 MOL      0.365848
    123 N12        -5.5210    2.4530   -0.4070 n         1 MOL     -0.490238
    124 C39        -6.7740    1.9410    0.1500 c3        1 MOL      0.198439
    125 C40        -6.8990    0.4210   -0.0080 c         1 MOL      0.721217
    126 O19        -7.3580   -0.2700    0.9390 o         1 MOL     -0.546933
    127 C41        -7.9790    2.6560   -0.5660 c3        1 MOL     -0.250855
    128 C42        -9.3510    2.1980   -0.0960 ca        1 MOL      0.258518
    129 C43        -9.5570    2.0760    1.2920 ca        1 MOL     -0.409138
    130 C44       -10.4100    1.9770   -0.9950 ca        1 MOL     -0.409138
    131 C45       -10.8440    1.7870    1.7970 ca        1 MOL      0.033453
    132 C46       -11.6440    1.4990   -0.5330 ca        1 MOL      0.033453
    133 C47       -11.8900    1.5340    0.8310 ca        1 MOL      0.051575
    134 O20       -13.1070    1.1480    1.3060 oh        1 MOL     -0.458245
    135 H56        -5.5160    3.1310   -1.1610 hn        1 MOL      0.292781
    136 H57        -6.7090    2.0340    1.2340 h1        1 MOL      0.057736
    137 H58        -7.9050    2.6550   -1.6600 hc        1 MOL      0.081338
    138 H59        -7.8220    3.7290   -0.3950 hc        1 MOL      0.081338
    139 H60        -8.7450    2.1620    2.0010 ha        1 MOL      0.173794
    140 H61       -10.1650    2.1000   -2.0500 ha        1 MOL      0.173794
    141 H62       -11.0700    1.7500    2.8490 ha        1 MOL      0.091408
    142 H63       -12.4570    1.2200   -1.1880 ha        1 MOL      0.091408
    143 H64       -13.7850    1.1430    0.6210 ho        1 MOL      0.353377
    144 N13        -6.4140   -0.2530   -1.0880 n         1 MOL     -0.572756
    145 C48        -6.3450   -1.6460   -1.3030 c3        1 MOL      0.072168
    146 C49        -5.4490   -2.3620   -0.2710 c         1 MOL      0.426508
    147 O21        -5.6830   -3.5170    0.1070 o         1 MOL     -0.525001
    148 C50        -5.8940   -1.9840   -2.7650 c3        1 MOL      0.283653
    149 C51        -6.1230   -3.4250   -3.1150 c3        1 MOL     -0.389992
    150 C52        -6.9700   -3.5710   -4.3400 c         1 MOL      0.749263
    151 O22        -6.5320   -3.8350   -5.4830 o         1 MOL     -0.755775
    152 O23        -8.1990   -3.2740   -4.3020 o         1 MOL     -0.755775
    153 H65        -5.8910    0.3750   -1.6760 hn        1 MOL      0.213795
    154 H66        -7.3180   -2.1150   -1.1810 h1        1 MOL      0.058128
    155 H67        -4.8430   -1.6780   -2.7870 hc        1 MOL     -0.018356
    156 H68        -6.4990   -1.3480   -3.4080 hc        1 MOL     -0.018356
    157 H69        -6.5640   -4.0580   -2.3520 hc        1 MOL      0.046094
    158 H70        -5.1470   -3.8880   -3.2030 hc        1 MOL      0.046094
    159 N14        -4.4100   -1.6680    0.2560 n         1 MOL     -0.107010
    160 C53        -3.5030   -2.2750    1.2330 c3        1 MOL     -0.327085
    161 C54        -4.0910   -2.1640    2.6350 c         1 MOL      0.518700
    162 O24        -3.7980   -2.9650    3.5040 o         1 MOL     -0.542770
    163 C55        -2.0440   -1.6320    1.1090 c3        1 MOL      0.374727
    164 C56        -1.3010   -2.0450   -0.1820 c3        1 MOL      0.030788
    165 C57         0.0060   -1.3420   -0.3460 c         1 MOL      0.815595
    166 O25         1.0250   -2.0010   -0.6240 o         1 MOL     -0.749172
    167 O26         0.0800   -0.0950   -0.2000 o         1 MOL     -0.749172
    168 H71        -4.3420   -0.6800    0.0840 hn        1 MOL      0.117926
    169 H72        -3.4390   -3.3270    0.9480 h1        1 MOL      0.178440
    170 H73        -1.4340   -1.9270    1.9740 hc        1 MOL     -0.073583
    171 H74        -2.1600   -0.5580    1.1990 hc        1 MOL     -0.073583
    172 H75        -1.9060   -1.6700   -1.0070 hc        1 MOL     -0.077821
    173 H76        -1.2070   -3.1240   -0.2500 hc        1 MOL     -0.077821
    174 N15        -4.8330   -1.0320    2.8540 n         1 MOL     -0.131530
    175 C58        -5.4820   -0.6660    4.1700 c3        1 MOL     -0.238069
    176 H77        -5.6550   -1.5710    4.7530 h1        1 MOL      0.093003
    177 H78        -4.8250    0.0030    4.7260 h1        1 MOL      0.093003
    178 H79        -6.4330   -0.1680    3.9810 h1        1 MOL      0.093003
    179 H80        -5.0070   -0.4570    2.0520 hn        1 MOL      0.037164
    180 Ca1         2.3860    0.1450   -1.4220 Ca        1 MOL      1.766019
    181 O27         2.1860    2.3110   -3.2700 oh        1 MOL     -0.924535
    182 H81         1.9790    2.1860   -4.2040 ho        1 MOL      0.427164
    183 H82         3.1120    2.5460   -3.2560 ho        1 MOL      0.427164
    184 O28         0.9680   -0.7400   -3.6590 oh        1 MOL     -0.924535
    185 H83         1.4490   -1.0320   -4.4400 ho        1 MOL      0.427164
    186 H84         0.0950   -1.1040   -3.7680 ho        1 MOL      0.427164
@<TRIPOS>BOND
     1    1    2 1   
     2    1    4 1   
     3    1    5 1   
     4    1    6 1   
     5    2    3 2   
     6    2    7 1   
     7    7    8 1   
     8    7   15 1   
     9    8    9 1   
    10    8   11 1   
    11    8   16 1   
    12    9   10 2   
    13    9   19 1   
    14   11   12 1   
    15   11   17 1   
    16   11   18 1   
    17   12   13 1   
    18   12   14 1   
    19   19   20 1   
    20   19   27 1   
    21   20   21 1   
    22   20   23 1   
    23   20   28 1   
    24   21   22 2   
    25   21   38 1   
    26   23   24 1   
    27   23   25 1   
    28   23   29 1   
    29   24   26 1   
    30   24   30 1   
    31   24   31 1   
    32   25   32 1   
    33   25   33 1   
    34   25   34 1   
    35   26   35 1   
    36   26   36 1   
    37   26   37 1   
    38   38   39 1   
    39   38   46 1   
    40   39   40 1   
    41   39   42 1   
    42   39   47 1   
    43   40   41 2   
    44   40   50 1   
    45   42   43 1   
    46   42   48 1   
    47   42   49 1   
    48   43   44 1   
    49   43   45 1   
    50   50   51 1   
    51   50   54 1   
    52   51   52 1   
    53   51   55 1   
    54   51   56 1   
    55   52   53 2   
    56   52   57 1   
    57   57   58 1   
    58   57   65 1   
    59   58   59 1   
    60   58   61 1   
    61   58   66 1   
    62   59   60 2   
    63   59   69 1   
    64   61   62 1   
    65   61   67 1   
    66   61   68 1   
    67   62   63 1   
    68   62   64 1   
    69   69   70 1   
    70   69   73 1   
    71   70   71 1   
    72   70   74 1   
    73   70   75 1   
    74   71   72 2   
    75   71   76 1   
    76   76   77 1   
    77   76   85 1   
    78   77   78 1   
    79   77   80 1   
    80   77   86 1   
    81   78   79 2   
    82   78   93 1   
    83   80   81 1   
    84   80   87 1   
    85   80   88 1   
    86   81   82 1   
    87   81   89 1   
    88   81   90 1   
    89   82   83 1   
    90   82   84 2   
    91   83   91 1   
    92   83   92 1   
    93   93   94 1   
    94   93  100 1   
    95   94   95 1   
    96   94   97 1   
    97   94  101 1   
    98   95   96 2   
    99   95  109 1   
   100   97   98 1   
   101   97   99 1   
   102   97  102 1   
   103   98  103 1   
   104   98  104 1   
   105   98  105 1   
   106   99  106 1   
   107   99  107 1   
   108   99  108 1   
   109  109  110 1   
   110  109  117 1   
   111  110  111 1   
   112  110  113 1   
   113  110  118 1   
   114  111  112 2   
   115  111  123 1   
   116  113  114 1   
   117  113  119 1   
   118  113  120 1   
   119  114  115 1   
   120  114  116 2   
   121  115  121 1   
   122  115  122 1   
   123  123  124 1   
   124  123  135 1   
   125  124  125 1   
   126  124  127 1   
   127  124  136 1   
   128  125  126 2   
   129  125  144 1   
   130  127  128 1   
   131  127  137 1   
   132  127  138 1   
   133  128  129 ar  
   134  128  130 ar  
   135  129  131 ar  
   136  129  139 1   
   137  130  132 ar  
   138  130  140 1   
   139  131  133 ar  
   140  131  141 1   
   141  132  133 ar  
   142  132  142 1   
   143  133  134 1   
   144  134  143 1   
   145  144  145 1   
   146  144  153 1   
   147  145  146 1   
   148  145  148 1   
   149  145  154 1   
   150  146  147 2   
   151  146  159 1   
   152  148  149 1   
   153  148  155 1   
   154  148  156 1   
   155  149  150 1   
   156  149  157 1   
   157  149  158 1   
   158  150  151 1   
   159  150  152 1   
   160  159  160 1   
   161  159  168 1   
   162  160  161 1   
   163  160  163 1   
   164  160  169 1   
   165  161  162 2   
   166  161  174 1   
   167  163  164 1   
   168  163  170 1   
   169  163  171 1   
   170  164  165 1   
   171  164  172 1   
   172  164  173 1   
   173  165  166 1   
   174  165  167 1   
   175  174  175 1   
   176  174  179 1   
   177  175  176 1   
   178  175  177 1   
   179  175  178 1   
   180  181  182 1   
   181  181  183 1   
   182  184  185 1   
   183  184  186 1   
@<TRIPOS>SUBSTRUCTURE
     1 MOL         1 TEMP              0 ****  ****    0 ROOT
