@<TRIPOS>MOLECULE
MOL
  182   178     1     0     0
SMALL
resp


@<TRIPOS>ATOM
      1 C1          1.4690    2.0120    6.1160 c3        1 MOL     -0.220784
      2 C2          0.9770    1.7840    4.6400 c         1 MOL      0.715105
      3 O1          1.8220    1.8890    3.7040 o         1 MOL     -0.626282
      4 H1          1.6540    3.0750    6.2770 hc        1 MOL      0.058705
      5 H2          0.7040    1.6680    6.8120 hc        1 MOL      0.058705
      6 H3          2.3910    1.4550    6.2830 hc        1 MOL      0.058705
      7 N1         -0.2900    1.6540    4.4110 n         1 MOL     -0.574955
      8 C3         -0.9320    1.7890    3.1400 c3        1 MOL      0.158527
      9 C4         -1.0140    3.2430    2.6830 c         1 MOL      0.422757
     10 O2         -1.8010    4.0860    3.2550 o         1 MOL     -0.541460
     11 C5         -2.3030    1.0770    3.1990 c3        1 MOL     -0.181652
     12 C6         -2.9190    0.8730    1.8400 c         1 MOL      0.748589
     13 O3         -2.4900    1.3690    0.7720 o         1 MOL     -0.747421
     14 O4         -4.0000    0.2680    1.8390 o         1 MOL     -0.747421
     15 H4         -0.9150    1.4700    5.1770 hn        1 MOL      0.309532
     16 H5         -0.3020    1.2270    2.4440 h1        1 MOL      0.057013
     17 H6         -3.0100    1.4920    3.9240 hc        1 MOL      0.069144
     18 H7         -2.0390    0.0730    3.5170 hc        1 MOL      0.069144
     19 N2         -0.2490    3.5070    1.6210 n         1 MOL     -0.040026
     20 C7         -0.0170    4.8230    1.0150 c3        1 MOL     -0.347589
     21 C8         -1.3000    5.5030    0.4600 c         1 MOL      0.582462
     22 O5         -1.4990    6.7180    0.3630 o         1 MOL     -0.601659
     23 C9          1.0340    4.7170   -0.1310 c3        1 MOL     -0.212135
     24 C10         1.5790    6.0800   -0.5850 c3        1 MOL      0.066271
     25 C11         2.6520    5.9640   -1.6790 c3        1 MOL     -0.201020
     26 C12         3.2160    7.3360   -2.0970 c3        1 MOL     -0.144657
     27 N3          2.1520    8.0610   -2.8820 n4        1 MOL     -0.311930
     28 H8          0.3550    2.7730    1.2880 hn        1 MOL      0.134889
     29 H9          0.3850    5.4520    1.8050 h1        1 MOL      0.168776
     30 H10         0.6360    4.2650   -1.0340 hc        1 MOL      0.167198
     31 H11         1.8950    4.2430    0.3410 hc        1 MOL      0.167198
     32 H12         2.0390    6.6420    0.2270 hc        1 MOL      0.033048
     33 H13         0.7670    6.6420   -1.0510 hc        1 MOL      0.033048
     34 H14         2.3420    5.4210   -2.5780 hc        1 MOL      0.082937
     35 H15         3.5130    5.4650   -1.2230 hc        1 MOL      0.082937
     36 H16         4.0750    7.1710   -2.7550 hx        1 MOL      0.167068
     37 H17         3.6420    7.8590   -1.2330 hx        1 MOL      0.167068
     38 H18         2.5540    8.9040   -3.2540 hn        1 MOL      0.319152
     39 H19         1.7580    7.5730   -3.6900 hn        1 MOL      0.319152
     40 H20         1.3790    8.4380   -2.3520 hn        1 MOL      0.319152
     41 N4         -2.3150    4.7110    0.1140 n         1 MOL     -0.110022
     42 C13        -3.5670    5.1560   -0.5820 c3        1 MOL     -0.198418
     43 C14        -4.9010    4.4780   -0.0570 c         1 MOL      0.471784
     44 O6         -5.9450    4.5880   -0.7100 o         1 MOL     -0.494547
     45 C15        -3.4440    4.9610   -2.1180 c3        1 MOL     -0.105860
     46 C16        -3.1410    3.5250   -2.6140 c         1 MOL      0.658563
     47 O7         -3.1780    3.2660   -3.8430 o         1 MOL     -0.717504
     48 O8         -2.7430    2.6550   -1.8130 o         1 MOL     -0.717504
     49 H21        -2.1530    3.7190    0.1720 hn        1 MOL      0.096501
     50 H22        -3.7080    6.2450   -0.5370 h1        1 MOL      0.152859
     51 H23        -2.6220    5.6010   -2.4520 hc        1 MOL      0.051046
     52 H24        -4.2890    5.3820   -2.6590 hc        1 MOL      0.051046
     53 N5         -4.8200    3.7250    1.0580 n         1 MOL     -0.315893
     54 C17        -5.9400    2.9730    1.6560 c3        1 MOL      0.077262
     55 C18        -6.6380    1.9440    0.7550 c         1 MOL      0.402201
     56 O9         -7.8470    1.6370    0.8290 o         1 MOL     -0.555791
     57 H25        -3.9040    3.5830    1.4520 hn        1 MOL      0.180695
     58 H26        -6.7120    3.5960    2.0890 h1        1 MOL      0.051247
     59 H27        -5.5990    2.3540    2.4790 h1        1 MOL      0.051247
     60 N6         -5.8550    1.2820   -0.1060 n         1 MOL     -0.151088
     61 C19        -6.3100    0.2920   -1.0140 c3        1 MOL     -0.136772
     62 C20        -6.4520   -1.1050   -0.4150 c         1 MOL      0.431975
     63 O10        -6.9960   -2.0030   -1.0720 o         1 MOL     -0.552739
     64 C21        -5.4170    0.2020   -2.3320 c3        1 MOL     -0.331079
     65 C22        -4.2930   -0.8420   -2.3140 c         1 MOL      0.656394
     66 N7         -4.3510   -1.6730   -3.2830 n         1 MOL     -0.825565
     67 O11        -3.3760   -0.7670   -1.5070 o         1 MOL     -0.658994
     68 H28        -4.8600    1.3370    0.0660 hn        1 MOL      0.282559
     69 H29        -7.2920    0.6100   -1.3610 h1        1 MOL      0.166287
     70 H30        -4.9270    1.1750   -2.3620 hc        1 MOL      0.141216
     71 H31        -6.1050    0.0580   -3.1690 hc        1 MOL      0.141216
     72 H32        -5.2180   -1.7550   -3.8050 hn        1 MOL      0.403764
     73 H33        -3.5640   -2.2850   -3.4460 hn        1 MOL      0.403764
     74 N8         -5.9980   -1.3250    0.8150 n         1 MOL     -0.124813
     75 C23        -6.0210   -2.5780    1.4950 c3        1 MOL     -0.342221
     76 C24        -4.6960   -3.3910    1.3960 c         1 MOL      0.550658
     77 O12        -4.6990   -4.5880    1.7470 o         1 MOL     -0.519038
     78 H34        -5.4590   -0.5980    1.2620 hn        1 MOL      0.227318
     79 H35        -6.7940   -3.2180    1.0620 h1        1 MOL      0.144693
     80 H36        -6.2020   -2.3690    2.5490 h1        1 MOL      0.144693
     81 N9         -3.6430   -2.7340    0.9270 n         1 MOL     -0.453671
     82 C25        -2.3770   -3.4210    0.7170 c3        1 MOL     -0.073177
     83 C26        -1.1580   -2.5530    1.0030 c         1 MOL      0.588041
     84 O13        -1.0010   -1.4520    0.4100 o         1 MOL     -0.706174
     85 C27        -2.2290   -4.0360   -0.6860 c3        1 MOL      0.405990
     86 C28        -3.2050   -5.1580   -1.0210 ca        1 MOL     -0.309321
     87 C29        -2.9820   -6.4830   -0.5490 ca        1 MOL     -0.017058
     88 C30        -4.5320   -4.9490   -1.5710 ca        1 MOL     -0.017058
     89 C31        -3.8860   -7.5590   -0.6900 ca        1 MOL     -0.324318
     90 C32        -5.4500   -5.9950   -1.7980 ca        1 MOL     -0.324318
     91 C33        -5.0910   -7.2920   -1.3430 ca        1 MOL      0.424620
     92 O14        -6.0150   -8.2810   -1.5410 oh        1 MOL     -0.529033
     93 H37        -3.6950   -1.7490    0.7010 hn        1 MOL      0.433299
     94 H38        -2.2820   -4.2940    1.3690 h1        1 MOL      0.078742
     95 H39        -1.2520   -4.5120   -0.7770 hc        1 MOL     -0.057783
     96 H40        -2.3030   -3.3070   -1.4930 hc        1 MOL     -0.057783
     97 H41        -2.1520   -6.7630    0.0740 ha        1 MOL      0.112683
     98 H42        -4.7410   -3.9870   -2.0110 ha        1 MOL      0.112683
     99 H43        -3.6770   -8.5450   -0.3190 ha        1 MOL      0.162709
    100 H44        -6.4070   -5.8380   -2.2830 ha        1 MOL      0.162709
    101 H45        -6.8370   -7.8680   -1.8060 ho        1 MOL      0.368134
    102 N10        -0.2550   -3.1700    1.7020 n         1 MOL     -0.450664
    103 C34         1.1280   -2.7420    1.7310 c3        1 MOL     -0.020724
    104 C35         1.8190   -3.5780    0.6550 c         1 MOL      0.341880
    105 O15         1.6920   -4.8130    0.5580 o         1 MOL     -0.529884
    106 C36         1.7900   -2.9930    3.0660 c3        1 MOL      0.279456
    107 C37         0.9720   -2.3580    4.2540 c3        1 MOL      0.296364
    108 C38         3.3120   -2.5000    3.0820 c3        1 MOL     -0.368253
    109 C39         1.3550   -2.9910    5.5870 c3        1 MOL     -0.275029
    110 H46        -0.4530   -3.9280    2.3340 hn        1 MOL      0.276992
    111 H47         1.2040   -1.6820    1.4760 h1        1 MOL      0.107585
    112 H48         1.8390   -4.0540    3.2750 hc        1 MOL     -0.022905
    113 H49        -0.1130   -2.4320    4.1650 hc        1 MOL     -0.094480
    114 H50         1.1000   -1.2770    4.2140 hc        1 MOL     -0.094480
    115 H51         3.3180   -1.4440    2.8160 hc        1 MOL      0.056820
    116 H52         3.7600   -2.8070    4.0300 hc        1 MOL      0.056820
    117 H53         3.8440   -3.0080    2.2790 hc        1 MOL      0.056820
    118 H54         1.1730   -4.0610    5.5540 hc        1 MOL      0.056977
    119 H55         2.3970   -2.8100    5.8630 hc        1 MOL      0.056977
    120 H56         0.7070   -2.4960    6.3130 hc        1 MOL      0.056977
    121 N11         2.6520   -2.8960   -0.1030 n         1 MOL     -0.085289
    122 C40         3.6650   -3.5610   -0.9650 c3        1 MOL     -0.069524
    123 C41         5.0990   -3.1680   -0.6450 c         1 MOL      0.400731
    124 O16         5.3650   -2.3270    0.1940 o         1 MOL     -0.377235
    125 C42         3.3450   -3.1260   -2.4060 c3        1 MOL     -0.019773
    126 O17         3.4690   -1.7390   -2.5680 oh        1 MOL     -0.595271
    127 H57         2.7880   -1.9150    0.0860 hn        1 MOL      0.350799
    128 H58         3.6150   -4.6470   -0.8890 h1        1 MOL      0.082516
    129 H59         2.3160   -3.4300   -2.6180 h1        1 MOL      0.078931
    130 H60         3.9710   -3.6010   -3.1640 h1        1 MOL      0.078931
    131 H61         2.8410   -1.2080   -2.0690 ho        1 MOL      0.364316
    132 N12         6.0440   -3.7450   -1.3020 n         1 MOL     -0.317229
    133 C43         7.4790   -3.4850   -1.0260 c3        1 MOL     -0.011822
    134 C44         7.8240   -1.9990   -1.1850 c         1 MOL      0.544279
    135 O18         8.5450   -1.4710   -0.3470 o         1 MOL     -0.507825
    136 C45         8.2220   -4.4080   -2.0770 c3        1 MOL     -0.236367
    137 H62         5.8620   -4.4840   -1.9550 hn        1 MOL      0.250807
    138 H63         7.5740   -3.8690   -0.0110 h1        1 MOL      0.110676
    139 H64         9.2550   -4.5040   -1.7420 hc        1 MOL      0.082564
    140 H65         7.8920   -5.4310   -2.2740 hc        1 MOL      0.082564
    141 H66         8.1590   -3.9210   -3.0520 hc        1 MOL      0.082564
    142 N13         7.3090   -1.3330   -2.2340 n         1 MOL     -0.436783
    143 C46         7.5740    0.0170   -2.5370 c3        1 MOL      0.128761
    144 C47         7.0390    0.9690   -1.4710 c         1 MOL      0.331072
    145 O19         7.5250    2.0850   -1.3520 o         1 MOL     -0.543594
    146 C48         6.9560    0.3630   -3.8700 c3        1 MOL     -0.398070
    147 H67         6.6740   -1.8310   -2.8480 hn        1 MOL      0.308329
    148 H68         8.6530    0.1840   -2.5790 h1        1 MOL      0.099304
    149 H69         7.3960    1.3150   -4.1790 hc        1 MOL      0.113432
    150 H70         7.2640   -0.3790   -4.6040 hc        1 MOL      0.113432
    151 H71         5.8660    0.3930   -3.8220 hc        1 MOL      0.113432
    152 N14         6.1190    0.5470   -0.6160 n         1 MOL      0.080646
    153 C49         5.5670    1.2380    0.5790 c3        1 MOL     -0.103739
    154 C50         6.3300    0.9100    1.9200 c         1 MOL      0.393409
    155 O20         6.5100    1.8180    2.7070 o         1 MOL     -0.524033
    156 C51         4.1400    0.8460    0.6140 c3        1 MOL      0.310942
    157 C52         3.3060    1.3450   -0.5100 c3        1 MOL     -0.301555
    158 C53         1.9390    0.7070   -0.4110 c         1 MOL      0.612915
    159 O21         1.0070    1.4200    0.0160 o         1 MOL     -0.660372
    160 O22         1.6500   -0.3840   -0.9770 o         1 MOL     -0.660372
    161 H72         6.0220   -0.4630   -0.6790 hn        1 MOL     -0.036800
    162 H73         5.5280    2.3230    0.5070 h1        1 MOL      0.107767
    163 H74         3.6150    1.1400    1.5300 hc        1 MOL     -0.037584
    164 H75         4.0290   -0.2270    0.4650 hc        1 MOL     -0.037584
    165 H76         3.7370    1.1510   -1.4880 hc        1 MOL      0.035220
    166 H77         3.1990    2.4250   -0.3770 hc        1 MOL      0.035220
    167 N15         6.8610   -0.3000    2.1420 n         1 MOL     -0.085450
    168 C54         7.7810   -0.7230    3.1790 c3        1 MOL     -0.344467
    169 H78         8.0390    0.1300    3.8060 h1        1 MOL      0.132977
    170 H79         7.3100   -1.4930    3.7900 h1        1 MOL      0.132977
    171 H80         8.6850   -1.1240    2.7220 h1        1 MOL      0.132977
    172 H81         6.6020   -1.0660    1.5350 hn        1 MOL      0.138218
    173 Ca1        -1.1440    0.5860   -1.3320 Ca        1 MOL      1.722349
    174 O23         0.5470    2.0490   -2.8620 oh        1 MOL     -0.798198
    175 H82         0.7300    1.9120   -3.7920 ho        1 MOL      0.391113
    176 H83         0.3380    2.9820   -2.7930 ho        1 MOL      0.391113
    177 O24        -1.6680    0.7710   -4.1410 oh        1 MOL     -0.798198
    178 H84        -2.2950    1.4900   -4.1240 ho        1 MOL      0.391113
    179 H85        -1.7450    0.4080   -5.0280 ho        1 MOL      0.391113
    180 O25         0.1520   -1.3770   -2.9090 oh        1 MOL     -0.798198
    181 H86         0.8930   -1.1310   -2.3560 ho        1 MOL      0.391113
    182 H87         0.3710   -1.0270   -3.7750 ho        1 MOL      0.391113
@<TRIPOS>BOND
     1    1    2 1   
     2    1    4 1   
     3    1    5 1   
     4    1    6 1   
     5    2    3 2   
     6    2    7 1   
     7    7    8 1   
     8    7   15 1   
     9    8    9 1   
    10    8   11 1   
    11    8   16 1   
    12    9   10 2   
    13    9   19 1   
    14   11   12 1   
    15   11   17 1   
    16   11   18 1   
    17   12   13 1   
    18   12   14 1   
    19   19   20 1   
    20   19   28 1   
    21   20   21 1   
    22   20   23 1   
    23   20   29 1   
    24   21   22 2   
    25   21   41 1   
    26   23   24 1   
    27   23   30 1   
    28   23   31 1   
    29   24   25 1   
    30   24   32 1   
    31   24   33 1   
    32   25   26 1   
    33   25   34 1   
    34   25   35 1   
    35   26   27 1   
    36   26   36 1   
    37   26   37 1   
    38   27   38 1   
    39   27   39 1   
    40   27   40 1   
    41   41   42 1   
    42   41   49 1   
    43   42   43 1   
    44   42   45 1   
    45   42   50 1   
    46   43   44 2   
    47   43   53 1   
    48   45   46 1   
    49   45   51 1   
    50   45   52 1   
    51   46   47 1   
    52   46   48 1   
    53   53   54 1   
    54   53   57 1   
    55   54   55 1   
    56   54   58 1   
    57   54   59 1   
    58   55   56 2   
    59   55   60 1   
    60   60   61 1   
    61   60   68 1   
    62   61   62 1   
    63   61   64 1   
    64   61   69 1   
    65   62   63 2   
    66   62   74 1   
    67   64   65 1   
    68   64   70 1   
    69   64   71 1   
    70   65   66 1   
    71   65   67 2   
    72   66   72 1   
    73   66   73 1   
    74   74   75 1   
    75   74   78 1   
    76   75   76 1   
    77   75   79 1   
    78   75   80 1   
    79   76   77 2   
    80   76   81 1   
    81   81   82 1   
    82   81   93 1   
    83   82   83 1   
    84   82   85 1   
    85   82   94 1   
    86   83   84 2   
    87   83  102 1   
    88   85   86 1   
    89   85   95 1   
    90   85   96 1   
    91   86   87 ar  
    92   86   88 ar  
    93   87   89 ar  
    94   87   97 1   
    95   88   90 ar  
    96   88   98 1   
    97   89   91 ar  
    98   89   99 1   
    99   90   91 ar  
   100   90  100 1   
   101   91   92 1   
   102   92  101 1   
   103  102  103 1   
   104  102  110 1   
   105  103  104 1   
   106  103  106 1   
   107  103  111 1   
   108  104  105 2   
   109  104  121 1   
   110  106  107 1   
   111  106  108 1   
   112  106  112 1   
   113  107  109 1   
   114  107  113 1   
   115  107  114 1   
   116  108  115 1   
   117  108  116 1   
   118  108  117 1   
   119  109  118 1   
   120  109  119 1   
   121  109  120 1   
   122  121  122 1   
   123  121  127 1   
   124  122  123 1   
   125  122  125 1   
   126  122  128 1   
   127  123  124 2   
   128  123  132 1   
   129  125  126 1   
   130  125  129 1   
   131  125  130 1   
   132  126  131 1   
   133  132  133 1   
   134  132  137 1   
   135  133  134 1   
   136  133  136 1   
   137  133  138 1   
   138  134  135 2   
   139  134  142 1   
   140  136  139 1   
   141  136  140 1   
   142  136  141 1   
   143  142  143 1   
   144  142  147 1   
   145  143  144 1   
   146  143  146 1   
   147  143  148 1   
   148  144  145 2   
   149  144  152 1   
   150  146  149 1   
   151  146  150 1   
   152  146  151 1   
   153  152  153 1   
   154  152  161 1   
   155  153  154 1   
   156  153  156 1   
   157  153  162 1   
   158  154  155 2   
   159  154  167 1   
   160  156  157 1   
   161  156  163 1   
   162  156  164 1   
   163  157  158 1   
   164  157  165 1   
   165  157  166 1   
   166  158  159 1   
   167  158  160 1   
   168  167  168 1   
   169  167  172 1   
   170  168  169 1   
   171  168  170 1   
   172  168  171 1   
   173  174  175 1   
   174  174  176 1   
   175  177  178 1   
   176  177  179 1   
   177  180  181 1   
   178  180  182 1   
@<TRIPOS>SUBSTRUCTURE
     1 MOL         1 TEMP              0 ****  ****    0 ROOT
