@<TRIPOS>MOLECULE
MOL
  175   173     1     0     0
SMALL
resp


@<TRIPOS>ATOM
      1 C1          0.4930    3.7780    5.5080 c3        1 MOL     -0.415898
      2 C2         -0.1270    3.9000    4.0840 c         1 MOL      0.693944
      3 O1          0.5990    3.9780    3.0850 o         1 MOL     -0.534590
      4 H1          1.2470    2.9910    5.5090 hc        1 MOL      0.107521
      5 H2          0.9560    4.7250    5.7850 hc        1 MOL      0.107521
      6 H3         -0.2900    3.5310    6.2250 hc        1 MOL      0.107521
      7 N1         -1.4720    3.8480    3.9120 n         1 MOL     -0.641327
      8 C3         -2.0940    3.4930    2.6360 c3        1 MOL      0.046158
      9 C4         -2.1290    4.7580    1.6900 c         1 MOL      0.691690
     10 O2         -2.2800    5.8640    2.2120 o         1 MOL     -0.573837
     11 C5         -3.5490    2.9460    2.8900 c3        1 MOL     -0.086458
     12 C6         -4.2880    2.7980    1.5630 c         1 MOL      0.533883
     13 O3         -3.7650    2.0790    0.6700 o         1 MOL     -0.591634
     14 O4         -5.3250    3.4720    1.3280 o         1 MOL     -0.591634
     15 H4         -2.1360    3.9370    4.6710 hn        1 MOL      0.335771
     16 H5         -1.5150    2.6750    2.2030 h1        1 MOL      0.088365
     17 H6         -4.0980    3.4810    3.6620 hc        1 MOL      0.007936
     18 H7         -3.5220    1.9380    3.3010 hc        1 MOL      0.007936
     19 N2         -2.1680    4.5280    0.3590 n         1 MOL     -0.631804
     20 C7         -2.4560    5.5140   -0.6620 c3        1 MOL      0.376766
     21 C8         -3.4590    5.1020   -1.7690 c         1 MOL      0.410428
     22 O5         -3.7780    5.9510   -2.6560 o         1 MOL     -0.576861
     23 C9         -1.0880    6.0070   -1.1370 c3        1 MOL     -0.347766
     24 H8         -2.0830    3.5830    0.0110 hn        1 MOL      0.346810
     25 H9         -2.9180    6.3750   -0.1820 h1        1 MOL     -0.000328
     26 H10        -1.1910    6.9390   -1.6920 hc        1 MOL      0.080844
     27 H11        -0.4490    6.2290   -0.2760 hc        1 MOL      0.080844
     28 H12        -0.6600    5.2620   -1.8120 hc        1 MOL      0.080844
     29 N3         -4.0540    3.8860   -1.6770 n         1 MOL     -0.238366
     30 C10        -4.8700    3.2970   -2.7410 c3        1 MOL      0.044340
     31 C11        -6.1020    2.4260   -2.2750 c         1 MOL      0.249396
     32 O6         -6.9870    2.1740   -3.0890 o         1 MOL     -0.519687
     33 C12        -4.0290    2.4510   -3.7420 c3        1 MOL     -0.086085
     34 C13        -2.8830    1.6120   -3.1540 c         1 MOL      0.573419
     35 O7         -3.2000    0.7690   -2.2640 o         1 MOL     -0.647141
     36 O8         -1.6910    1.6470   -3.6230 o         1 MOL     -0.647141
     37 H13        -3.7470    3.3820   -0.8640 hn        1 MOL      0.174521
     38 H14        -5.3050    4.0610   -3.3850 h1        1 MOL      0.096700
     39 H15        -3.5620    3.1990   -4.3860 hc        1 MOL      0.025065
     40 H16        -4.5990    1.8140   -4.4230 hc        1 MOL      0.025065
     41 N4         -6.1760    2.0080   -0.9840 n         1 MOL      0.081414
     42 C14        -7.2760    1.2560   -0.3660 c3        1 MOL     -0.098018
     43 C15        -7.3080   -0.1760   -0.9330 c         1 MOL      0.446054
     44 O9         -8.4560   -0.6750   -0.9810 o         1 MOL     -0.597482
     45 H17        -5.5290    2.3720   -0.3030 hn        1 MOL     -0.013016
     46 H18        -8.2520    1.6830   -0.6040 h1        1 MOL      0.069335
     47 H19        -7.1910    1.2960    0.7190 h1        1 MOL      0.069335
     48 N5         -6.2210   -0.8450   -1.3590 n         1 MOL     -0.091852
     49 C16        -6.2170   -2.1680   -2.0200 c3        1 MOL     -0.067478
     50 C17        -6.2210   -3.3010   -1.0280 c         1 MOL      0.452551
     51 O10        -6.1680   -4.4530   -1.4300 o         1 MOL     -0.510946
     52 C18        -5.0160   -2.2550   -3.0100 c3        1 MOL     -0.239770
     53 C19        -3.6030   -2.3090   -2.4380 c         1 MOL      0.400915
     54 N6         -2.5560   -2.6350   -3.1070 n         1 MOL     -0.604595
     55 O11        -3.4390   -2.1530   -1.2590 o         1 MOL     -0.046817
     56 H20        -5.3050   -0.4520   -1.2300 hn        1 MOL      0.025392
     57 H21        -7.1130   -2.3300   -2.6090 h1        1 MOL      0.130712
     58 H22        -5.0630   -1.4610   -3.7580 hc        1 MOL      0.095447
     59 H23        -5.1660   -3.2210   -3.4980 hc        1 MOL      0.095447
     60 H24        -2.6340   -2.8990   -4.0790 hn        1 MOL      0.330443
     61 H25        -1.6640   -2.4600   -2.6780 hn        1 MOL      0.330443
     62 N7         -6.2510   -3.0580    0.3010 n         1 MOL     -0.295913
     63 C20        -6.1460   -4.1320    1.3330 c3        1 MOL     -0.158567
     64 C21        -4.8130   -4.7380    1.7720 c         1 MOL      0.418665
     65 O12        -4.8050   -5.5680    2.7330 o         1 MOL     -0.567451
     66 H26        -6.5770   -2.1700    0.6600 hn        1 MOL      0.230167
     67 H27        -6.6690   -4.9820    0.8830 h1        1 MOL      0.104399
     68 H28        -6.6750   -3.9180    2.2550 h1        1 MOL      0.104399
     69 N8         -3.7520   -4.3610    1.1080 n         1 MOL      0.099649
     70 C22        -2.3640   -4.7740    1.3460 c3        1 MOL     -0.468372
     71 C23        -1.4520   -3.5670    1.5050 c         1 MOL      0.724792
     72 O13        -1.7420   -2.4660    1.0320 o         1 MOL     -0.649419
     73 C24        -1.7880   -5.5970    0.2060 c3        1 MOL      0.564601
     74 C25        -2.6680   -6.7790    0.1240 c3        1 MOL     -0.485518
     75 O14        -1.9390   -4.9220   -1.0610 oh        1 MOL     -0.583923
     76 H29        -3.8400   -3.5930    0.4590 hn        1 MOL     -0.010706
     77 H30        -2.3980   -5.4190    2.2290 h1        1 MOL      0.146822
     78 H31        -0.7430   -5.9010    0.2610 h1        1 MOL      0.008527
     79 H32        -2.3440   -4.0580   -1.0040 ho        1 MOL      0.250768
     80 H33        -3.6040   -6.4490   -0.3340 hc        1 MOL      0.111864
     81 H34        -2.2600   -7.5750   -0.5060 hc        1 MOL      0.111864
     82 H35        -2.9150   -7.2020    1.1000 hc        1 MOL      0.111864
     83 N9         -0.2980   -3.8130    2.1830 n         1 MOL     -0.539038
     84 C26         0.8210   -2.8890    2.0570 c3        1 MOL     -0.067709
     85 C27         1.5900   -3.1080    0.7330 c         1 MOL      0.492866
     86 O15         2.0330   -4.2440    0.4990 o         1 MOL     -0.584200
     87 C28         1.7140   -2.9380    3.3030 c3        1 MOL      0.381371
     88 C29         0.9470   -2.5260    4.5460 c3        1 MOL      0.162396
     89 C30         2.9520   -2.0360    3.1250 c3        1 MOL     -0.176838
     90 C31         1.7130   -2.5130    5.8320 c3        1 MOL     -0.343138
     91 H36        -0.0820   -4.7570    2.4670 hn        1 MOL      0.289005
     92 H37         0.4560   -1.8630    1.9440 h1        1 MOL      0.088226
     93 H38         2.0790   -3.9560    3.4360 hc        1 MOL     -0.081327
     94 H39         0.1320   -3.2450    4.6290 hc        1 MOL     -0.054277
     95 H40         0.5470   -1.5400    4.3230 hc        1 MOL     -0.054277
     96 H41         2.6720   -0.9880    3.0480 hc        1 MOL      0.007636
     97 H42         3.6550   -2.2640    3.9240 hc        1 MOL      0.007636
     98 H43         3.4130   -2.3500    2.1910 hc        1 MOL      0.007636
     99 H44         2.4000   -1.6800    5.6900 hc        1 MOL      0.074564
    100 H45         1.0900   -2.2980    6.6990 hc        1 MOL      0.074564
    101 H46         2.2440   -3.4590    5.8840 hc        1 MOL      0.074564
    102 N10         1.7750   -2.0110    0.0010 n         1 MOL     -0.033141
    103 C32         2.7230   -1.9330   -1.1740 c3        1 MOL      0.014045
    104 C33         4.2070   -1.4880   -0.7780 c         1 MOL      0.424481
    105 O16         4.4440   -0.9090    0.2970 o         1 MOL     -0.301942
    106 C34         2.0140   -0.9820   -2.0940 c3        1 MOL     -0.191410
    107 C35         0.5500   -1.5170   -2.4180 c         1 MOL      0.670677
    108 O17        -0.4560   -1.2510   -1.6850 o         1 MOL     -0.658730
    109 O18         0.3560   -2.2010   -3.4530 o         1 MOL     -0.658730
    110 H47         1.4170   -1.1170    0.2990 hn        1 MOL     -0.098695
    111 H48         2.7490   -2.9380   -1.5940 h1        1 MOL      0.062007
    112 H49         2.6280   -0.9390   -2.9920 hc        1 MOL      0.058071
    113 H50         1.9140   -0.0310   -1.5740 hc        1 MOL      0.058071
    114 N11         5.1800   -1.6360   -1.6720 n         1 MOL     -0.567616
    115 C36         6.5860   -1.3110   -1.4360 c3        1 MOL      0.150398
    116 C37         6.8430    0.1250   -0.9550 c         1 MOL      0.392180
    117 O19         7.5360    0.2670    0.0480 o         1 MOL     -0.462894
    118 C38         7.3720   -1.8620   -2.6870 c3        1 MOL     -0.040896
    119 C39         8.9110   -1.7510   -2.3240 ca        1 MOL      0.034450
    120 C40         9.5100   -2.6890   -1.4690 ca        1 MOL     -0.163350
    121 C41         9.6090   -0.6520   -2.7830 ca        1 MOL     -0.163350
    122 C42        10.8600   -2.5300   -1.0800 ca        1 MOL     -0.107545
    123 C43        10.9250   -0.4370   -2.3650 ca        1 MOL     -0.107545
    124 C44        11.5080   -1.3770   -1.4940 ca        1 MOL     -0.102612
    125 H51         4.9760   -1.9800   -2.5980 hn        1 MOL      0.324499
    126 H52         6.8220   -1.9690   -0.5920 h1        1 MOL      0.087261
    127 H53         7.2230   -1.2380   -3.5730 hc        1 MOL      0.034529
    128 H54         7.1600   -2.8740   -3.0160 hc        1 MOL      0.034529
    129 H55         8.9930   -3.5820   -1.1340 ha        1 MOL      0.114241
    130 H56         9.0950    0.1500   -3.3020 ha        1 MOL      0.114241
    131 H57        11.3260   -3.2270   -0.4020 ha        1 MOL      0.116207
    132 H58        11.4700    0.4430   -2.6500 ha        1 MOL      0.116207
    133 H59        12.4950   -1.2320   -1.1050 ha        1 MOL      0.090073
    134 N12         6.3190    1.1850   -1.6420 n         1 MOL      0.020309
    135 C45         6.3450    2.5780   -1.2720 c3        1 MOL     -0.025474
    136 C46         5.5650    2.7210    0.0830 c         1 MOL      0.414385
    137 O20         6.1980    3.3850    0.9240 o         1 MOL     -0.514555
    138 C47         5.7710    3.3770   -2.4810 c3        1 MOL     -0.056861
    139 C48         5.0580    2.3360   -3.3530 c3        1 MOL      0.000346
    140 C49         5.9350    1.1080   -3.0510 c3        1 MOL     -0.136162
    141 H60         7.4070    2.7690   -1.1150 h1        1 MOL      0.046490
    142 H61         5.0110    4.0670   -2.1080 hc        1 MOL      0.035857
    143 H62         6.5150    3.9170   -3.0670 hc        1 MOL      0.035857
    144 H63         4.0530    2.1690   -2.9620 hc        1 MOL      0.032509
    145 H64         5.0330    2.6410   -4.4000 hc        1 MOL      0.032509
    146 H65         5.3290    0.2490   -3.3140 h1        1 MOL      0.049502
    147 H66         6.7420    1.3210   -3.7460 h1        1 MOL      0.049502
    148 N13         4.4040    2.0920    0.2790 n         1 MOL     -0.128658
    149 C50         3.7960    2.2640    1.5860 c3        1 MOL     -0.279559
    150 C51         4.5970    1.5940    2.7190 c         1 MOL      0.434956
    151 O21         4.5210    1.9160    3.9220 o         1 MOL     -0.558106
    152 C52         2.4090    1.6260    1.5200 c3        1 MOL     -0.059587
    153 C53         1.4720    2.3280    0.5070 c3        1 MOL     -0.193616
    154 C54         0.1640    1.6150    0.4250 c         1 MOL      0.663697
    155 O22        -0.7840    2.0580   -0.2840 o         1 MOL     -0.679885
    156 O23         0.0330    0.5100    0.9040 o         1 MOL     -0.679885
    157 H67         4.0240    1.3630   -0.3080 hn        1 MOL      0.169233
    158 H68         3.7130    3.3300    1.7660 h1        1 MOL      0.180287
    159 H69         1.8750    1.6080    2.4620 hc        1 MOL      0.116928
    160 H70         2.5610    0.6100    1.1500 hc        1 MOL      0.116928
    161 H71         2.0160    2.2120   -0.4260 hc        1 MOL      0.076580
    162 H72         1.2550    3.3820    0.7050 hc        1 MOL      0.076580
    163 N14         5.4470    0.6280    2.3520 n         1 MOL      0.062731
    164 C55         6.3260   -0.0120    3.3810 c3        1 MOL     -0.177654
    165 H73         6.7670   -0.9190    2.9680 h1        1 MOL      0.068444
    166 H74         7.1180    0.6800    3.6640 h1        1 MOL      0.068444
    167 H75         5.7330   -0.2640    4.2600 h1        1 MOL      0.068444
    168 H76         5.5480    0.3280    1.3930 hn        1 MOL     -0.044226
    169 Ca1        -2.2930   -0.1220   -0.1190 Ca        1 MOL      1.571442
    170 O24        -4.6370   -0.5450    1.1530 oh        1 MOL     -0.800756
    171 H77        -5.2560   -0.9580    1.7500 ho        1 MOL      0.389413
    172 H78        -4.6440    0.3860    1.4060 ho        1 MOL      0.389413
    173 O25        -1.8190    0.0220    2.7100 oh        1 MOL     -0.800756
    174 H79        -1.8200    0.4780    3.5520 ho        1 MOL      0.389413
    175 H80        -1.0080    0.3160    2.2820 ho        1 MOL      0.389413
@<TRIPOS>BOND
     1    1    2 1   
     2    1    4 1   
     3    1    5 1   
     4    1    6 1   
     5    2    3 2   
     6    2    7 1   
     7    7    8 1   
     8    7   15 1   
     9    8    9 1   
    10    8   11 1   
    11    8   16 1   
    12    9   10 2   
    13    9   19 1   
    14   11   12 1   
    15   11   17 1   
    16   11   18 1   
    17   12   13 1   
    18   12   14 1   
    19   19   20 1   
    20   19   24 1   
    21   20   21 1   
    22   20   23 1   
    23   20   25 1   
    24   21   22 2   
    25   21   29 1   
    26   23   26 1   
    27   23   27 1   
    28   23   28 1   
    29   29   30 1   
    30   29   37 1   
    31   30   31 1   
    32   30   33 1   
    33   30   38 1   
    34   31   32 2   
    35   31   41 1   
    36   33   34 1   
    37   33   39 1   
    38   33   40 1   
    39   34   35 1   
    40   34   36 1   
    41   41   42 1   
    42   41   45 1   
    43   42   43 1   
    44   42   46 1   
    45   42   47 1   
    46   43   44 2   
    47   43   48 1   
    48   48   49 1   
    49   48   56 1   
    50   49   50 1   
    51   49   52 1   
    52   49   57 1   
    53   50   51 2   
    54   50   62 1   
    55   52   53 1   
    56   52   58 1   
    57   52   59 1   
    58   53   54 1   
    59   53   55 2   
    60   54   60 1   
    61   54   61 1   
    62   62   63 1   
    63   62   66 1   
    64   63   64 1   
    65   63   67 1   
    66   63   68 1   
    67   64   65 2   
    68   64   69 1   
    69   69   70 1   
    70   69   76 1   
    71   70   71 1   
    72   70   73 1   
    73   70   77 1   
    74   71   72 2   
    75   71   83 1   
    76   73   74 1   
    77   73   75 1   
    78   73   78 1   
    79   74   80 1   
    80   74   81 1   
    81   74   82 1   
    82   75   79 1   
    83   83   84 1   
    84   83   91 1   
    85   84   85 1   
    86   84   87 1   
    87   84   92 1   
    88   85   86 2   
    89   85  102 1   
    90   87   88 1   
    91   87   89 1   
    92   87   93 1   
    93   88   90 1   
    94   88   94 1   
    95   88   95 1   
    96   89   96 1   
    97   89   97 1   
    98   89   98 1   
    99   90   99 1   
   100   90  100 1   
   101   90  101 1   
   102  102  103 1   
   103  102  110 1   
   104  103  104 1   
   105  103  106 1   
   106  103  111 1   
   107  104  105 2   
   108  104  114 1   
   109  106  107 1   
   110  106  112 1   
   111  106  113 1   
   112  107  108 1   
   113  107  109 1   
   114  114  115 1   
   115  114  125 1   
   116  115  116 1   
   117  115  118 1   
   118  115  126 1   
   119  116  117 2   
   120  116  134 1   
   121  118  119 1   
   122  118  127 1   
   123  118  128 1   
   124  119  120 ar  
   125  119  121 ar  
   126  120  122 ar  
   127  120  129 1   
   128  121  123 ar  
   129  121  130 1   
   130  122  124 ar  
   131  122  131 1   
   132  123  124 ar  
   133  123  132 1   
   134  124  133 1   
   135  134  135 1   
   136  134  140 1   
   137  135  136 1   
   138  135  138 1   
   139  135  141 1   
   140  136  137 2   
   141  136  148 1   
   142  138  139 1   
   143  138  142 1   
   144  138  143 1   
   145  139  140 1   
   146  139  144 1   
   147  139  145 1   
   148  140  146 1   
   149  140  147 1   
   150  148  149 1   
   151  148  157 1   
   152  149  150 1   
   153  149  152 1   
   154  149  158 1   
   155  150  151 2   
   156  150  163 1   
   157  152  153 1   
   158  152  159 1   
   159  152  160 1   
   160  153  154 1   
   161  153  161 1   
   162  153  162 1   
   163  154  155 1   
   164  154  156 1   
   165  163  164 1   
   166  163  168 1   
   167  164  165 1   
   168  164  166 1   
   169  164  167 1   
   170  170  171 1   
   171  170  172 1   
   172  173  174 1   
   173  173  175 1   
@<TRIPOS>SUBSTRUCTURE
     1 MOL         1 TEMP              0 ****  ****    0 ROOT
