@<TRIPOS>MOLECULE
MOL
  186   183     1     0     0
SMALL
resp


@<TRIPOS>ATOM
      1 C1          1.3260   -2.7550    6.4610 c3        1 MOL     -0.411608
      2 C2          1.3310   -2.6550    4.9370 c         1 MOL      0.717844
      3 O1          1.2300   -1.5460    4.3660 o         1 MOL     -0.570913
      4 H1          0.9890   -1.8100    6.8850 hc        1 MOL      0.112808
      5 H2          0.6510   -3.5530    6.7700 hc        1 MOL      0.112808
      6 H3          2.3340   -2.9740    6.8150 hc        1 MOL      0.112808
      7 N1          1.5720   -3.7420    4.1400 n         1 MOL     -0.558165
      8 C3          2.1140   -3.6710    2.7340 c3        1 MOL      0.092388
      9 C4          1.8770   -4.8960    1.8160 c         1 MOL      0.435771
     10 O2          1.8410   -6.0390    2.2500 o         1 MOL     -0.578951
     11 C5          3.6010   -3.3050    2.7790 c3        1 MOL     -0.019627
     12 C6          4.2960   -2.8000    1.5280 c         1 MOL      0.548706
     13 O3          3.5980   -2.4300    0.5020 o         1 MOL     -0.620841
     14 O4          5.5070   -2.7120    1.6400 o         1 MOL     -0.620841
     15 H4          1.5840   -4.6650    4.5470 hn        1 MOL      0.297119
     16 H5          1.6340   -2.8540    2.1980 h1        1 MOL      0.078375
     17 H6          4.1670   -4.1040    3.2660 hc        1 MOL      0.002441
     18 H7          3.6810   -2.5530    3.5550 hc        1 MOL      0.002441
     19 N2          1.6280   -4.6120    0.5470 n         1 MOL     -0.010823
     20 C7          1.8020   -5.6120   -0.5470 c3        1 MOL     -0.215381
     21 C8          2.8990   -5.3090   -1.5880 c         1 MOL      0.502988
     22 O5          3.3520   -6.2750   -2.2500 o         1 MOL     -0.584021
     23 C9          0.3820   -6.0320   -1.0080 c3        1 MOL      0.212845
     24 C10        -0.1120   -4.9730   -2.0200 c3        1 MOL      0.037835
     25 C11        -0.7430   -6.2670   -0.0070 c3        1 MOL     -0.262657
     26 C12        -1.4450   -5.3240   -2.7370 c3        1 MOL     -0.366750
     27 H8          1.4380   -3.6620    0.2420 hn        1 MOL     -0.021738
     28 H9          2.1950   -6.4890   -0.0370 h1        1 MOL      0.099312
     29 H10         0.4960   -6.9650   -1.5660 hc        1 MOL     -0.042661
     30 H11         0.6280   -4.7880   -2.8020 hc        1 MOL      0.042813
     31 H12        -0.1990   -4.1250   -1.3410 hc        1 MOL      0.042813
     32 H13        -1.1760   -5.2800    0.2080 hc        1 MOL      0.059485
     33 H14        -1.4780   -7.0070   -0.3220 hc        1 MOL      0.059485
     34 H15        -0.3410   -6.7300    0.8970 hc        1 MOL      0.059485
     35 H16        -2.2610   -5.2480   -2.0220 hc        1 MOL      0.094141
     36 H17        -1.5140   -4.4940   -3.4370 hc        1 MOL      0.094141
     37 H18        -1.3350   -6.3040   -3.2110 hc        1 MOL      0.094141
     38 N3          3.3810   -4.0780   -1.7810 n         1 MOL     -0.335828
     39 C13         4.1350   -3.6550   -2.9340 c3        1 MOL      0.015269
     40 C14         5.3670   -2.7510   -2.6810 c         1 MOL      0.490906
     41 O6          6.0130   -2.2830   -3.6730 o         1 MOL     -0.595408
     42 C15         3.1370   -2.9960   -3.9520 c3        1 MOL      0.100499
     43 C16         2.3530   -1.8210   -3.3220 c         1 MOL      0.555114
     44 O7          2.7060   -1.3570   -2.2080 o         1 MOL     -0.674693
     45 O8          1.5390   -1.1580   -4.0270 o         1 MOL     -0.674693
     46 H19         3.2800   -3.3370   -1.1010 hn        1 MOL      0.292237
     47 H20         4.5900   -4.5010   -3.4450 h1        1 MOL      0.055740
     48 H21         2.3930   -3.7640   -4.1590 hc        1 MOL     -0.024548
     49 H22         3.6500   -2.8690   -4.9070 hc        1 MOL     -0.024548
     50 N4          5.7850   -2.5670   -1.4620 n         1 MOL     -0.274674
     51 C17         7.1210   -2.0950   -1.0450 c3        1 MOL     -0.016247
     52 C18         7.4760   -0.6430   -1.4340 c         1 MOL      0.408026
     53 O9          8.6750   -0.2380   -1.4630 o         1 MOL     -0.617623
     54 H23         5.0860   -2.7520   -0.7610 hn        1 MOL      0.151942
     55 H24         7.7800   -2.8340   -1.4950 h1        1 MOL      0.072303
     56 H25         7.3860   -2.2420    0.0090 h1        1 MOL      0.072303
     57 N5          6.4540    0.0410   -1.8900 n         1 MOL     -0.111677
     58 C19         6.5770    1.3790   -2.5680 c3        1 MOL      0.066297
     59 C20         6.7240    2.5540   -1.5820 c         1 MOL      0.315464
     60 O10         6.7420    3.7350   -1.9800 o         1 MOL     -0.501683
     61 C21         5.3450    1.6480   -3.3580 c3        1 MOL     -0.335038
     62 C22         4.1020    1.8560   -2.5160 c         1 MOL      0.928139
     63 O11         4.0590    1.2680   -1.4210 o         1 MOL     -0.737903
     64 O12         3.1200    2.5440   -2.9820 o         1 MOL     -0.737903
     65 H26         5.5060   -0.2880   -1.8180 hn        1 MOL      0.071313
     66 H27         7.4270    1.3930   -3.2530 h1        1 MOL      0.110958
     67 H28         5.1860    0.8190   -4.0360 hc        1 MOL      0.088326
     68 H29         5.5280    2.5160   -3.9890 hc        1 MOL      0.088326
     69 N6          6.8770    2.2860   -0.2870 n         1 MOL     -0.214044
     70 C23         7.1220    3.3230    0.7930 c3        1 MOL     -0.162173
     71 C24         5.9120    4.0830    1.2570 c         1 MOL      0.464306
     72 O13         6.1550    5.0900    1.9340 o         1 MOL     -0.562392
     73 H30         6.8400    1.3300    0.0450 hn        1 MOL      0.234852
     74 H31         7.9940    3.9170    0.5130 h1        1 MOL      0.109694
     75 H32         7.4750    2.6810    1.6030 h1        1 MOL      0.109694
     76 N7          4.6820    3.7230    0.8210 n         1 MOL     -0.102633
     77 C25         3.3550    4.2950    1.2860 c3        1 MOL     -0.059182
     78 C26         2.2520    3.2790    1.4680 c         1 MOL      0.404774
     79 O14         2.0760    2.3240    0.6770 o         1 MOL     -0.413257
     80 C27         2.8240    5.4710    0.3900 c3        1 MOL      0.063499
     81 C28         3.8250    6.5360   -0.1170 c3        1 MOL     -0.310567
     82 C29         2.9120    7.6270   -0.8320 c         1 MOL      0.593843
     83 N8          2.3130    7.4270   -2.0060 n         1 MOL     -0.786097
     84 O15         2.5550    8.6670   -0.2350 o         1 MOL     -0.579284
     85 H33         4.7120    2.8990    0.2290 hn        1 MOL      0.048685
     86 H34         3.5580    4.6840    2.2800 h1        1 MOL      0.038654
     87 H35         2.0120    5.9490    0.9570 hc        1 MOL      0.058977
     88 H36         2.3700    5.0070   -0.4830 hc        1 MOL      0.058977
     89 H37         4.5320    6.1360   -0.8300 hc        1 MOL      0.119541
     90 H38         4.2970    7.0050    0.7480 hc        1 MOL      0.119541
     91 H39         2.5640    6.6210   -2.5600 hn        1 MOL      0.371415
     92 H40         1.6420    8.1300   -2.2960 hn        1 MOL      0.371415
     93 N9          1.6160    3.4030    2.6580 n         1 MOL     -0.544781
     94 C30         0.3160    2.6120    2.7840 c3        1 MOL      0.061872
     95 C31        -0.7660    3.1630    1.8850 c         1 MOL      0.362915
     96 O16        -0.9290    4.3760    1.8230 o         1 MOL     -0.601288
     97 C32        -0.2850    2.7400    4.1450 c3        1 MOL      0.262335
     98 C33        -1.4070    1.6220    4.3680 c3        1 MOL     -0.307536
     99 C34         0.6930    2.3740    5.2310 c3        1 MOL     -0.307536
    100 H41         1.7710    4.2740    3.1380 hn        1 MOL      0.356146
    101 H42         0.4360    1.5690    2.4830 h1        1 MOL      0.132989
    102 H43        -0.5730    3.7680    4.3520 hc        1 MOL     -0.024220
    103 H44        -0.9880    0.6310    4.5500 hc        1 MOL      0.059573
    104 H45        -1.9470    1.9370    5.2550 hc        1 MOL      0.059573
    105 H46        -2.1090    1.6370    3.5410 hc        1 MOL      0.059573
    106 H47         1.0350    1.3410    5.1550 hc        1 MOL      0.059573
    107 H48         1.5290    3.0690    5.1290 hc        1 MOL      0.059573
    108 H49         0.2480    2.4920    6.2170 hc        1 MOL      0.059573
    109 N10        -1.4190    2.2970    1.2330 n         1 MOL      0.017792
    110 C35        -2.5870    2.6290    0.4240 c3        1 MOL      0.240020
    111 C36        -3.9530    2.2200    1.0820 c         1 MOL      0.225738
    112 O17        -3.9250    1.3500    1.9840 o         1 MOL     -0.454539
    113 C37        -2.3120    1.9980   -0.9450 c3        1 MOL     -0.362406
    114 C38        -3.4860    2.0330   -1.9040 c         1 MOL      0.702192
    115 N11        -3.8300    3.2050   -2.4630 n         1 MOL     -0.721795
    116 O18        -4.0470    1.0430   -2.2980 o         1 MOL     -0.489654
    117 H50        -1.0950    1.3460    1.1730 hn        1 MOL      0.060415
    118 H51        -2.5730    3.7160    0.3400 h1        1 MOL     -0.016561
    119 H52        -2.0240    0.9520   -0.8780 hc        1 MOL      0.122960
    120 H53        -1.3890    2.4690   -1.2910 hc        1 MOL      0.122960
    121 H54        -3.3370    4.0230   -2.1240 hn        1 MOL      0.315843
    122 H55        -4.6140    3.2790   -3.0880 hn        1 MOL      0.315843
    123 N12        -5.0700    2.5650    0.5060 n         1 MOL     -0.115672
    124 C39        -6.4070    2.1040    1.0240 c3        1 MOL      0.014168
    125 C40        -6.7580    0.5870    0.8090 c         1 MOL      0.537135
    126 O19        -7.5970    0.0900    1.5020 o         1 MOL     -0.553395
    127 C41        -7.4330    3.0700    0.4500 c3        1 MOL     -0.225971
    128 C42        -7.8710    2.9190   -1.0280 ca        1 MOL     -0.002555
    129 C43        -8.8490    1.9430   -1.3740 ca        1 MOL     -0.125584
    130 C44        -7.0740    3.6090   -1.9290 ca        1 MOL     -0.125584
    131 C45        -9.1100    1.6830   -2.7430 ca        1 MOL     -0.339174
    132 C46        -7.3770    3.4170   -3.2470 ca        1 MOL     -0.339174
    133 C47        -8.2370    2.3880   -3.6420 ca        1 MOL      0.490808
    134 O20        -8.5110    2.1750   -4.9870 oh        1 MOL     -0.609156
    135 H56        -5.0070    3.2630   -0.2180 hn        1 MOL      0.101581
    136 H57        -6.4610    2.3450    2.0870 h1        1 MOL      0.084270
    137 H58        -7.0730    4.0920    0.6140 hc        1 MOL      0.070233
    138 H59        -8.3470    2.8880    1.0160 hc        1 MOL      0.070233
    139 H60        -9.3710    1.4070   -0.5960 ha        1 MOL      0.152145
    140 H61        -6.3100    4.2670   -1.5580 ha        1 MOL      0.152145
    141 H62        -9.7460    0.8680   -3.0650 ha        1 MOL      0.175298
    142 H63        -6.7240    3.8990   -3.9550 ha        1 MOL      0.175298
    143 H64        -9.0150    1.3780   -5.1670 ho        1 MOL      0.430216
    144 N13        -6.1140   -0.0260   -0.2140 n         1 MOL     -0.131772
    145 C48        -6.1410   -1.5530   -0.2870 c3        1 MOL     -0.314337
    146 C49        -5.2990   -2.1480    0.8030 c         1 MOL      0.467505
    147 O21        -5.4400   -3.3440    1.0560 o         1 MOL     -0.525146
    148 C50        -5.7080   -2.0480   -1.7240 c3        1 MOL      0.233408
    149 C51        -6.6600   -1.6290   -2.8420 c3        1 MOL     -0.342040
    150 C52        -6.5620   -2.6940   -3.9430 c         1 MOL      0.690652
    151 O22        -5.9290   -2.4780   -4.9990 o         1 MOL     -0.731084
    152 O23        -7.0880   -3.8140   -3.7010 o         1 MOL     -0.731084
    153 H65        -5.4910    0.4800   -0.8250 hn        1 MOL      0.125366
    154 H66        -7.1730   -1.8420   -0.1270 h1        1 MOL      0.158213
    155 H67        -5.6910   -3.1340   -1.6470 hc        1 MOL      0.028558
    156 H68        -4.6810   -1.7530   -1.8910 hc        1 MOL      0.028558
    157 H69        -6.3790   -0.6400   -3.2180 hc        1 MOL      0.048838
    158 H70        -7.6720   -1.5980   -2.4400 hc        1 MOL      0.048838
    159 N14        -4.4030   -1.4210    1.5140 n         1 MOL     -0.324221
    160 C53        -3.5250   -2.0200    2.5570 c3        1 MOL     -0.057781
    161 C54        -4.0630   -1.6930    3.9570 c         1 MOL      0.492557
    162 O24        -3.6560   -2.3170    4.8900 o         1 MOL     -0.566985
    163 C55        -2.1030   -1.6240    2.2950 c3        1 MOL      0.035680
    164 C56        -1.6040   -1.9560    0.9060 c3        1 MOL      0.203454
    165 C57        -0.2950   -1.3320    0.5730 c         1 MOL      0.653642
    166 O25        -0.1340   -0.1080    0.6910 o         1 MOL     -0.694574
    167 O26         0.5760   -2.0780    0.1290 o         1 MOL     -0.694574
    168 H71        -4.1410   -0.4850    1.2310 hn        1 MOL      0.208040
    169 H72        -3.6040   -3.1050    2.4830 h1        1 MOL      0.102846
    170 H73        -1.5200   -2.2200    2.9900 hc        1 MOL     -0.000707
    171 H74        -1.9440   -0.5580    2.4990 hc        1 MOL     -0.000707
    172 H75        -2.3050   -1.6910    0.1170 hc        1 MOL     -0.044210
    173 H76        -1.4840   -3.0390    0.8890 hc        1 MOL     -0.044210
    174 N15        -5.1010   -0.8790    4.0500 n         1 MOL     -0.167796
    175 C58        -5.9960   -0.6370    5.2530 c3        1 MOL     -0.162594
    176 H77        -5.9410    0.4130    5.5420 h1        1 MOL      0.074779
    177 H78        -7.0250   -0.8900    4.9980 h1        1 MOL      0.074779
    178 H79        -5.6640   -1.2600    6.0840 h1        1 MOL      0.074779
    179 H80        -5.2930   -0.2870    3.2560 hn        1 MOL      0.144617
    180 Ca1         2.2960   -0.1240   -0.1240 Ca        1 MOL      1.724311
    181 O27         2.5110   -0.2730    2.6370 oh        1 MOL     -0.946875
    182 H81         2.1060   -0.8650    3.2660 ho        1 MOL      0.434198
    183 H82         3.2010    0.1760    3.1310 ho        1 MOL      0.434198
    184 O28         1.0230    1.4270   -1.8960 oh        1 MOL     -0.946875
    185 H83         0.6000    0.9890   -2.6380 ho        1 MOL      0.434198
    186 H84         1.7490    1.9180   -2.2790 ho        1 MOL      0.434198
@<TRIPOS>BOND
     1    1    2 1   
     2    1    4 1   
     3    1    5 1   
     4    1    6 1   
     5    2    3 2   
     6    2    7 1   
     7    7    8 1   
     8    7   15 1   
     9    8    9 1   
    10    8   11 1   
    11    8   16 1   
    12    9   10 2   
    13    9   19 1   
    14   11   12 1   
    15   11   17 1   
    16   11   18 1   
    17   12   13 1   
    18   12   14 1   
    19   19   20 1   
    20   19   27 1   
    21   20   21 1   
    22   20   23 1   
    23   20   28 1   
    24   21   22 2   
    25   21   38 1   
    26   23   24 1   
    27   23   25 1   
    28   23   29 1   
    29   24   26 1   
    30   24   30 1   
    31   24   31 1   
    32   25   32 1   
    33   25   33 1   
    34   25   34 1   
    35   26   35 1   
    36   26   36 1   
    37   26   37 1   
    38   38   39 1   
    39   38   46 1   
    40   39   40 1   
    41   39   42 1   
    42   39   47 1   
    43   40   41 2   
    44   40   50 1   
    45   42   43 1   
    46   42   48 1   
    47   42   49 1   
    48   43   44 1   
    49   43   45 1   
    50   50   51 1   
    51   50   54 1   
    52   51   52 1   
    53   51   55 1   
    54   51   56 1   
    55   52   53 2   
    56   52   57 1   
    57   57   58 1   
    58   57   65 1   
    59   58   59 1   
    60   58   61 1   
    61   58   66 1   
    62   59   60 2   
    63   59   69 1   
    64   61   62 1   
    65   61   67 1   
    66   61   68 1   
    67   62   63 1   
    68   62   64 1   
    69   69   70 1   
    70   69   73 1   
    71   70   71 1   
    72   70   74 1   
    73   70   75 1   
    74   71   72 2   
    75   71   76 1   
    76   76   77 1   
    77   76   85 1   
    78   77   78 1   
    79   77   80 1   
    80   77   86 1   
    81   78   79 2   
    82   78   93 1   
    83   80   81 1   
    84   80   87 1   
    85   80   88 1   
    86   81   82 1   
    87   81   89 1   
    88   81   90 1   
    89   82   83 1   
    90   82   84 2   
    91   83   91 1   
    92   83   92 1   
    93   93   94 1   
    94   93  100 1   
    95   94   95 1   
    96   94   97 1   
    97   94  101 1   
    98   95   96 2   
    99   95  109 1   
   100   97   98 1   
   101   97   99 1   
   102   97  102 1   
   103   98  103 1   
   104   98  104 1   
   105   98  105 1   
   106   99  106 1   
   107   99  107 1   
   108   99  108 1   
   109  109  110 1   
   110  109  117 1   
   111  110  111 1   
   112  110  113 1   
   113  110  118 1   
   114  111  112 2   
   115  111  123 1   
   116  113  114 1   
   117  113  119 1   
   118  113  120 1   
   119  114  115 1   
   120  114  116 2   
   121  115  121 1   
   122  115  122 1   
   123  123  124 1   
   124  123  135 1   
   125  124  125 1   
   126  124  127 1   
   127  124  136 1   
   128  125  126 2   
   129  125  144 1   
   130  127  128 1   
   131  127  137 1   
   132  127  138 1   
   133  128  129 ar  
   134  128  130 ar  
   135  129  131 ar  
   136  129  139 1   
   137  130  132 ar  
   138  130  140 1   
   139  131  133 ar  
   140  131  141 1   
   141  132  133 ar  
   142  132  142 1   
   143  133  134 1   
   144  134  143 1   
   145  144  145 1   
   146  144  153 1   
   147  145  146 1   
   148  145  148 1   
   149  145  154 1   
   150  146  147 2   
   151  146  159 1   
   152  148  149 1   
   153  148  155 1   
   154  148  156 1   
   155  149  150 1   
   156  149  157 1   
   157  149  158 1   
   158  150  151 1   
   159  150  152 1   
   160  159  160 1   
   161  159  168 1   
   162  160  161 1   
   163  160  163 1   
   164  160  169 1   
   165  161  162 2   
   166  161  174 1   
   167  163  164 1   
   168  163  170 1   
   169  163  171 1   
   170  164  165 1   
   171  164  172 1   
   172  164  173 1   
   173  165  166 1   
   174  165  167 1   
   175  174  175 1   
   176  174  179 1   
   177  175  176 1   
   178  175  177 1   
   179  175  178 1   
   180  181  182 1   
   181  181  183 1   
   182  184  185 1   
   183  184  186 1   
@<TRIPOS>SUBSTRUCTURE
     1 MOL         1 TEMP              0 ****  ****    0 ROOT
