@<TRIPOS>MOLECULE
MOL
  179   176     1     0     0
SMALL
resp


@<TRIPOS>ATOM
      1 C1          1.0330    4.1060    6.5090 c3        1 MOL     -0.376791
      2 C2          1.1630    3.4430    5.1540 c         1 MOL      0.787179
      3 O1          2.2130    3.4310    4.5880 o         1 MOL     -0.582601
      4 H1          0.1610    3.7080    7.0250 hc        1 MOL      0.096019
      5 H2          1.9270    3.9050    7.0990 hc        1 MOL      0.096019
      6 H3          0.9170    5.1820    6.3780 hc        1 MOL      0.096019
      7 N1          0.0620    2.9440    4.5490 n         1 MOL     -0.710078
      8 C3          0.0220    2.4290    3.1650 c3        1 MOL      0.200454
      9 C4         -0.0510    3.6550    2.1900 c         1 MOL      0.433940
     10 O2         -0.8430    4.5870    2.4180 o         1 MOL     -0.480792
     11 C5         -1.2370    1.5610    3.0210 c3        1 MOL     -0.420127
     12 C6         -1.4540    1.1670    1.5110 c         1 MOL      0.458467
     13 O3         -2.5990    0.7660    1.1810 o         1 MOL     -0.561199
     14 O4         -0.4330    0.9340    0.7610 o         1 MOL     -0.561199
     15 H4         -0.7790    3.0430    5.1010 hn        1 MOL      0.343563
     16 H5          0.9410    1.8970    2.9320 h1        1 MOL      0.091332
     17 H6         -2.0190    2.2240    3.3930 hc        1 MOL      0.146277
     18 H7         -1.1090    0.6400    3.5820 hc        1 MOL      0.146277
     19 N2          0.6160    3.6500    1.0630 n         1 MOL     -0.098140
     20 C7          0.7620    4.7530    0.1720 c3        1 MOL     -0.075686
     21 C8         -0.5890    5.2480   -0.3730 c         1 MOL      0.385604
     22 O5         -0.9120    6.4500   -0.2870 o         1 MOL     -0.521492
     23 C9          1.7910    4.3770   -0.8380 c3        1 MOL      0.031905
     24 C10         2.2700    5.5150   -1.8850 c3        1 MOL     -0.145774
     25 C11         3.3050    4.9110   -2.8900 c3        1 MOL     -0.167785
     26 C12         3.7750    5.9690   -3.9590 c3        1 MOL      0.135244
     27 N3          4.7100    5.4740   -4.9790 n4        1 MOL     -0.476353
     28 H8          1.2360    2.8930    0.8220 hn        1 MOL      0.048844
     29 H9          1.1450    5.6410    0.6870 h1        1 MOL      0.092598
     30 H10         1.3470    3.6080   -1.4730 hc        1 MOL      0.072212
     31 H11         2.6150    3.9090   -0.2950 hc        1 MOL      0.072212
     32 H12         2.6620    6.3830   -1.3600 hc        1 MOL      0.075503
     33 H13         1.4490    5.8980   -2.4890 hc        1 MOL      0.075503
     34 H14         2.8070    4.0970   -3.4150 hc        1 MOL      0.079134
     35 H15         4.1950    4.5280   -2.3880 hc        1 MOL      0.079134
     36 H16         4.1080    6.8180   -3.3670 hx        1 MOL      0.073312
     37 H17         2.9530    6.4900   -4.4480 hx        1 MOL      0.073312
     38 H18         5.2590    4.7910   -4.4770 hn        1 MOL      0.360268
     39 H19         4.2320    5.0090   -5.7460 hn        1 MOL      0.360268
     40 H20         5.2800    6.1760   -5.4300 hn        1 MOL      0.360268
     41 N4         -1.4270    4.3390   -0.9060 n         1 MOL     -0.192635
     42 C13        -2.6970    4.6960   -1.5430 c3        1 MOL      0.072950
     43 C14        -3.8760    4.4240   -0.6240 c         1 MOL      0.306227
     44 O6         -5.0260    4.9070   -0.8890 o         1 MOL     -0.534784
     45 C15        -2.8780    4.0240   -2.9300 c3        1 MOL     -0.399621
     46 C16        -2.5550    2.4660   -2.9450 c         1 MOL      0.680510
     47 O7         -2.6070    1.7890   -1.9570 o         1 MOL     -0.653957
     48 O8         -2.1850    2.0580   -4.0790 o         1 MOL     -0.653957
     49 H21        -1.2200    3.3470   -0.8400 hn        1 MOL      0.163072
     50 H22        -2.7430    5.7450   -1.8440 h1        1 MOL      0.120698
     51 H23        -2.3650    4.6230   -3.6790 hc        1 MOL      0.118144
     52 H24        -3.9250    4.1450   -3.2120 hc        1 MOL      0.118144
     53 N5         -3.5950    3.8120    0.4950 n         1 MOL      0.069981
     54 C17        -4.5320    3.4550    1.6110 c3        1 MOL     -0.272341
     55 C18        -5.5480    2.5180    1.0520 c         1 MOL      0.512716
     56 O9         -6.7150    2.4810    1.5120 o         1 MOL     -0.555340
     57 H25        -2.6830    3.3800    0.5560 hn        1 MOL     -0.080216
     58 H26        -5.0530    4.3710    1.8960 h1        1 MOL      0.145030
     59 H27        -3.9000    3.1240    2.4360 h1        1 MOL      0.145030
     60 N6         -5.2120    1.7210    0.0450 n         1 MOL     -0.354740
     61 C19        -6.3400    1.0370   -0.7230 c3        1 MOL      0.012598
     62 C20        -6.8870   -0.2290    0.0360 c         1 MOL      0.414324
     63 O10        -7.9670   -0.7030   -0.1940 o         1 MOL     -0.538330
     64 C21        -5.7490    0.5760   -2.0720 c3        1 MOL     -0.202545
     65 C22        -4.9780   -0.7600   -1.9380 c         1 MOL      0.560508
     66 N7         -5.3420   -1.8010   -2.6160 n         1 MOL     -0.692583
     67 O11        -4.0910   -0.8750   -1.1510 o         1 MOL     -0.697164
     68 H28        -4.2970    1.8280   -0.3850 hn        1 MOL      0.392180
     69 H29        -7.1890    1.7160   -0.7760 h1        1 MOL      0.113508
     70 H30        -5.0340    1.3230   -2.4240 hc        1 MOL      0.081882
     71 H31        -6.6320    0.4850   -2.7010 hc        1 MOL      0.081882
     72 H32        -6.1600   -1.8040   -3.2030 hn        1 MOL      0.356455
     73 H33        -4.7220   -2.5840   -2.4870 hn        1 MOL      0.356455
     74 N8         -6.0670   -0.7620    0.9150 n         1 MOL      0.143972
     75 C23        -6.5010   -1.7230    1.8960 c3        1 MOL     -0.353106
     76 C24        -5.4870   -2.7440    2.3550 c         1 MOL      0.678651
     77 O12        -5.7950   -3.6330    3.1150 o         1 MOL     -0.567979
     78 H34        -5.1600   -0.3350    0.9790 hn        1 MOL      0.023787
     79 H35        -7.3670   -2.2790    1.5280 h1        1 MOL      0.127431
     80 H36        -6.7360   -1.1540    2.7900 h1        1 MOL      0.127431
     81 N9         -4.2310   -2.6210    1.8630 n         1 MOL     -0.396891
     82 C25        -3.1050   -3.5300    2.0570 c3        1 MOL     -0.038782
     83 C26        -1.8050   -2.8380    1.5770 c         1 MOL      0.483710
     84 O13        -1.7960   -2.1350    0.5640 o         1 MOL     -0.434177
     85 C27        -3.3450   -4.8300    1.2910 c3        1 MOL     -0.011001
     86 C28        -4.0450   -4.8540   -0.0960 ca        1 MOL      0.128910
     87 C29        -5.4560   -4.8820   -0.2750 ca        1 MOL     -0.286960
     88 C30        -3.2080   -5.0610   -1.2020 ca        1 MOL     -0.286960
     89 C31        -6.0850   -5.0810   -1.5530 ca        1 MOL     -0.088491
     90 C32        -3.8180   -5.2470   -2.4520 ca        1 MOL     -0.088491
     91 C33        -5.2230   -5.2610   -2.6580 ca        1 MOL      0.116644
     92 O14        -5.8160   -5.5320   -3.8670 oh        1 MOL     -0.396935
     93 H37        -3.9660   -1.8740    1.2360 hn        1 MOL      0.245983
     94 H38        -3.0510   -3.7960    3.1200 h1        1 MOL      0.074678
     95 H39        -3.8970   -5.5140    1.9370 hc        1 MOL      0.033701
     96 H40        -2.3750   -5.3260    1.2470 hc        1 MOL      0.033701
     97 H41        -6.0660   -4.8840    0.6180 ha        1 MOL      0.179267
     98 H42        -2.1330   -5.1630   -1.1220 ha        1 MOL      0.179267
     99 H43        -7.1460   -5.0930   -1.7130 ha        1 MOL      0.121542
    100 H44        -3.0880   -5.3410   -3.2540 ha        1 MOL      0.121542
    101 H45        -5.1550   -5.7420   -4.5280 ho        1 MOL      0.316327
    102 N10        -0.6390   -3.1080    2.2820 n         1 MOL     -0.504324
    103 C34         0.6500   -2.3750    2.1200 c3        1 MOL      0.104004
    104 C35         1.6810   -3.2450    1.4970 c         1 MOL      0.386026
    105 O15         1.8300   -4.4160    1.9670 o         1 MOL     -0.553959
    106 C36         1.2070   -1.6950    3.3760 c3        1 MOL     -0.062672
    107 C37         2.4450   -0.8290    3.1250 c3        1 MOL      0.162259
    108 C38         1.4390   -2.6120    4.6270 c3        1 MOL     -0.375123
    109 C39         3.1010   -0.1730    4.3290 c3        1 MOL     -0.168343
    110 H46        -0.6990   -3.8640    2.9440 hn        1 MOL      0.335348
    111 H47         0.3600   -1.5290    1.5020 h1        1 MOL      0.195749
    112 H48         0.3160   -1.1090    3.6020 hc        1 MOL      0.038508
    113 H49         2.0730   -0.1130    2.3830 hc        1 MOL     -0.020609
    114 H50         3.2480   -1.4480    2.7280 hc        1 MOL     -0.020609
    115 H51         1.6310   -2.0950    5.5590 hc        1 MOL      0.097680
    116 H52         0.6370   -3.3400    4.7340 hc        1 MOL      0.097680
    117 H53         2.2950   -3.2810    4.4860 hc        1 MOL      0.097680
    118 H54         3.5330   -0.9620    4.9380 hc        1 MOL      0.039539
    119 H55         3.9470    0.4150    3.9820 hc        1 MOL      0.039539
    120 H56         2.4920    0.5730    4.8430 hc        1 MOL      0.039539
    121 N11         2.2550   -2.8710    0.3730 n         1 MOL     -0.033860
    122 C40         3.2810   -3.6070   -0.4040 c3        1 MOL      0.082783
    123 C41         4.6690   -3.4530    0.0730 c         1 MOL      0.321055
    124 O16         4.9610   -2.4550    0.7820 o         1 MOL     -0.366343
    125 C42         3.1930   -3.3840   -1.8850 c3        1 MOL     -0.130370
    126 O17         3.8700   -2.2220   -2.2450 oh        1 MOL     -0.492179
    127 H57         1.7910   -2.1420   -0.1490 hn        1 MOL     -0.011830
    128 H58         3.1100   -4.6720   -0.3870 h1        1 MOL      0.031761
    129 H59         2.1520   -3.3440   -2.2160 h1        1 MOL      0.098618
    130 H60         3.7530   -4.2350   -2.2670 h1        1 MOL      0.098618
    131 H61         3.3250   -1.6470   -2.7880 ho        1 MOL      0.417189
    132 N12         5.6280   -4.2940   -0.3470 n         1 MOL     -0.377949
    133 C43         7.0170   -4.1220    0.1180 c3        1 MOL      0.134830
    134 C44         7.5700   -2.8270   -0.4620 c         1 MOL      0.333166
    135 O18         8.4060   -2.2250    0.1830 o         1 MOL     -0.496141
    136 C45         7.8480   -5.2880   -0.3940 c3        1 MOL     -0.156932
    137 H62         5.3560   -5.0920   -0.8950 hn        1 MOL      0.297264
    138 H63         7.1210   -4.1070    1.1980 h1        1 MOL      0.105503
    139 H64         7.3720   -6.1990   -0.0210 hc        1 MOL      0.053727
    140 H65         7.8470   -5.3650   -1.4800 hc        1 MOL      0.053727
    141 H66         8.8490   -5.3330    0.0330 hc        1 MOL      0.053727
    142 N13         7.0940   -2.2850   -1.6060 n         1 MOL     -0.242940
    143 C46         7.4070   -1.0230   -2.2530 c3        1 MOL      0.096637
    144 C47         6.5830    0.1500   -1.5860 c         1 MOL      0.405182
    145 O19         7.2080    1.2210   -1.5360 o         1 MOL     -0.562790
    146 C48         7.1600   -1.3500   -3.7190 c3        1 MOL     -0.292743
    147 H67         6.5870   -2.9130   -2.2080 hn        1 MOL      0.224214
    148 H68         8.4580   -0.7830   -2.0740 h1        1 MOL      0.097248
    149 H69         7.9750   -1.9630   -4.1140 hc        1 MOL      0.072618
    150 H70         6.2130   -1.8610   -3.9320 hc        1 MOL      0.072618
    151 H71         7.1450   -0.3690   -4.1920 hc        1 MOL      0.072618
    152 N14         5.4880   -0.1070   -1.0210 n         1 MOL     -0.099089
    153 C49         4.8310    0.9470   -0.2260 c3        1 MOL     -0.199606
    154 C50         5.3010    1.0630    1.2250 c         1 MOL      0.522393
    155 O20         5.3970    2.1830    1.7300 o         1 MOL     -0.555944
    156 C51         3.2640    0.8580   -0.2300 c3        1 MOL     -0.071529
    157 C52         2.6860    0.9940   -1.6110 c3        1 MOL      0.256334
    158 C53         1.2600    0.3670   -1.6130 c         1 MOL      0.532441
    159 O21         0.4360    1.0280   -2.2060 o         1 MOL     -0.652132
    160 O22         1.0000   -0.8070   -1.2850 o         1 MOL     -0.652132
    161 H72         5.0440   -0.9960   -1.2230 hn        1 MOL      0.098966
    162 H73         5.0480    1.9220   -0.6410 h1        1 MOL      0.090247
    163 H74         2.8620    1.6030    0.4520 hc        1 MOL      0.026042
    164 H75         2.9540   -0.1140    0.1420 hc        1 MOL      0.026042
    165 H76         3.2240    0.3660   -2.3260 hc        1 MOL     -0.090324
    166 H77         2.6990    1.9950   -2.0290 hc        1 MOL     -0.090324
    167 N15         5.6360   -0.0260    1.9400 n         1 MOL      0.024020
    168 C54         6.4430    0.0680    3.1190 c3        1 MOL     -0.308735
    169 H78         7.4650    0.3260    2.8400 h1        1 MOL      0.105997
    170 H79         6.0400    0.8410    3.7750 h1        1 MOL      0.105997
    171 H80         6.4390   -0.8890    3.6400 h1        1 MOL      0.105997
    172 H81         5.4970   -0.9570    1.5640 hn        1 MOL      0.096393
    173 Ca1        -1.5690   -0.3790   -1.3930 Ca        1 MOL      1.762277
    174 O23        -2.1520   -0.5090   -4.0510 oh        1 MOL     -0.905825
    175 H82        -2.6580   -0.9530   -4.7320 ho        1 MOL      0.404420
    176 H83        -2.2790    0.4220   -4.2220 ho        1 MOL      0.404420
    177 O24        -0.6250   -2.8440   -1.9360 oh        1 MOL     -0.905825
    178 H84        -0.5100   -3.6600   -2.4210 ho        1 MOL      0.404420
    179 H85         0.2290   -2.4170   -1.9710 ho        1 MOL      0.404420
@<TRIPOS>BOND
     1    1    2 1   
     2    1    4 1   
     3    1    5 1   
     4    1    6 1   
     5    2    3 2   
     6    2    7 1   
     7    7    8 1   
     8    7   15 1   
     9    8    9 1   
    10    8   11 1   
    11    8   16 1   
    12    9   10 2   
    13    9   19 1   
    14   11   12 1   
    15   11   17 1   
    16   11   18 1   
    17   12   13 1   
    18   12   14 1   
    19   19   20 1   
    20   19   28 1   
    21   20   21 1   
    22   20   23 1   
    23   20   29 1   
    24   21   22 2   
    25   21   41 1   
    26   23   24 1   
    27   23   30 1   
    28   23   31 1   
    29   24   25 1   
    30   24   32 1   
    31   24   33 1   
    32   25   26 1   
    33   25   34 1   
    34   25   35 1   
    35   26   27 1   
    36   26   36 1   
    37   26   37 1   
    38   27   38 1   
    39   27   39 1   
    40   27   40 1   
    41   41   42 1   
    42   41   49 1   
    43   42   43 1   
    44   42   45 1   
    45   42   50 1   
    46   43   44 2   
    47   43   53 1   
    48   45   46 1   
    49   45   51 1   
    50   45   52 1   
    51   46   47 1   
    52   46   48 1   
    53   53   54 1   
    54   53   57 1   
    55   54   55 1   
    56   54   58 1   
    57   54   59 1   
    58   55   56 2   
    59   55   60 1   
    60   60   61 1   
    61   60   68 1   
    62   61   62 1   
    63   61   64 1   
    64   61   69 1   
    65   62   63 2   
    66   62   74 1   
    67   64   65 1   
    68   64   70 1   
    69   64   71 1   
    70   65   66 1   
    71   65   67 2   
    72   66   72 1   
    73   66   73 1   
    74   74   75 1   
    75   74   78 1   
    76   75   76 1   
    77   75   79 1   
    78   75   80 1   
    79   76   77 2   
    80   76   81 1   
    81   81   82 1   
    82   81   93 1   
    83   82   83 1   
    84   82   85 1   
    85   82   94 1   
    86   83   84 2   
    87   83  102 1   
    88   85   86 1   
    89   85   95 1   
    90   85   96 1   
    91   86   87 ar  
    92   86   88 ar  
    93   87   89 ar  
    94   87   97 1   
    95   88   90 ar  
    96   88   98 1   
    97   89   91 ar  
    98   89   99 1   
    99   90   91 ar  
   100   90  100 1   
   101   91   92 1   
   102   92  101 1   
   103  102  103 1   
   104  102  110 1   
   105  103  104 1   
   106  103  106 1   
   107  103  111 1   
   108  104  105 2   
   109  104  121 1   
   110  106  107 1   
   111  106  108 1   
   112  106  112 1   
   113  107  109 1   
   114  107  113 1   
   115  107  114 1   
   116  108  115 1   
   117  108  116 1   
   118  108  117 1   
   119  109  118 1   
   120  109  119 1   
   121  109  120 1   
   122  121  122 1   
   123  121  127 1   
   124  122  123 1   
   125  122  125 1   
   126  122  128 1   
   127  123  124 2   
   128  123  132 1   
   129  125  126 1   
   130  125  129 1   
   131  125  130 1   
   132  126  131 1   
   133  132  133 1   
   134  132  137 1   
   135  133  134 1   
   136  133  136 1   
   137  133  138 1   
   138  134  135 2   
   139  134  142 1   
   140  136  139 1   
   141  136  140 1   
   142  136  141 1   
   143  142  143 1   
   144  142  147 1   
   145  143  144 1   
   146  143  146 1   
   147  143  148 1   
   148  144  145 2   
   149  144  152 1   
   150  146  149 1   
   151  146  150 1   
   152  146  151 1   
   153  152  153 1   
   154  152  161 1   
   155  153  154 1   
   156  153  156 1   
   157  153  162 1   
   158  154  155 2   
   159  154  167 1   
   160  156  157 1   
   161  156  163 1   
   162  156  164 1   
   163  157  158 1   
   164  157  165 1   
   165  157  166 1   
   166  158  159 1   
   167  158  160 1   
   168  167  168 1   
   169  167  172 1   
   170  168  169 1   
   171  168  170 1   
   172  168  171 1   
   173  174  175 1   
   174  174  176 1   
   175  177  178 1   
   176  177  179 1   
@<TRIPOS>SUBSTRUCTURE
     1 MOL         1 TEMP              0 ****  ****    0 ROOT
