@<TRIPOS>MOLECULE
MOL
  179   176     1     0     0
SMALL
resp


@<TRIPOS>ATOM
      1 C1         -0.4520    4.9650   -4.3530 c3        1 MOL     -0.305409
      2 C2         -0.0990    4.1380   -3.1460 c         1 MOL      0.596244
      3 O1         -0.6470    4.3340   -2.0610 o         1 MOL     -0.541079
      4 H1         -0.8390    4.3150   -5.1380 hc        1 MOL      0.070551
      5 H2         -1.2100    5.6980   -4.0820 hc        1 MOL      0.070551
      6 H3          0.4380    5.4790   -4.7150 hc        1 MOL      0.070551
      7 N1          0.9180    3.3380   -3.2640 n         1 MOL     -0.424833
      8 C3          1.5260    2.6110   -2.1030 c3        1 MOL      0.163753
      9 C4          2.4880    3.6080   -1.3960 c         1 MOL      0.365492
     10 O2          3.6740    3.6520   -1.7390 o         1 MOL     -0.491238
     11 C5          2.3500    1.3980   -2.5260 c3        1 MOL     -0.308841
     12 C6          3.0250    0.6610   -1.3170 c         1 MOL      0.852593
     13 O3          2.6620    0.7950   -0.1670 o         1 MOL     -0.724671
     14 O4          3.8350   -0.1860   -1.6890 o         1 MOL     -0.724671
     15 H4          1.4220    3.2970   -4.1460 hn        1 MOL      0.305022
     16 H5          0.8360    2.3310   -1.3160 h1        1 MOL      0.034668
     17 H6          3.0730    1.6480   -3.3050 hc        1 MOL      0.072156
     18 H7          1.6240    0.8130   -3.0840 hc        1 MOL      0.072156
     19 N2          1.9720    4.5610   -0.6140 n         1 MOL     -0.200030
     20 C7          2.6910    5.7480   -0.1700 c3        1 MOL     -0.239062
     21 C8          3.6900    5.4520    0.9060 c         1 MOL      0.567806
     22 O5          4.5810    6.3120    1.1540 o         1 MOL     -0.561051
     23 C9          1.6390    6.8320    0.2440 c3        1 MOL     -0.022461
     24 C10         0.8990    7.2570   -1.0180 c3        1 MOL      0.012783
     25 C11        -0.1080    8.4120   -0.8680 c3        1 MOL      0.145735
     26 C12        -0.5270    8.9200   -2.2340 c3        1 MOL      0.006379
     27 N3         -1.1210   10.2610   -2.0540 n4        1 MOL     -0.332618
     28 H8          0.9630    4.5360   -0.5100 hn        1 MOL      0.268999
     29 H9          3.2360    6.0630   -1.0670 h1        1 MOL      0.137479
     30 H10         2.2050    7.6850    0.6470 hc        1 MOL      0.043623
     31 H11         0.9800    6.5650    1.0700 hc        1 MOL      0.043623
     32 H12         0.3690    6.3800   -1.3810 hc        1 MOL     -0.004198
     33 H13         1.6380    7.5390   -1.7610 hc        1 MOL     -0.004198
     34 H14         0.4560    9.2370   -0.4290 hc        1 MOL     -0.017350
     35 H15        -0.9080    8.1360   -0.1840 hc        1 MOL     -0.017350
     36 H16        -1.2290    8.2280   -2.6970 hx        1 MOL      0.086332
     37 H17         0.3740    8.9830   -2.8520 hx        1 MOL      0.086332
     38 H18        -1.4450   10.7460   -2.8900 hn        1 MOL      0.315918
     39 H19        -1.9150   10.3000   -1.4320 hn        1 MOL      0.315918
     40 H20        -0.4180   10.9320   -1.7750 hn        1 MOL      0.315918
     41 N4          3.6610    4.2900    1.5600 n         1 MOL     -0.279893
     42 C13         4.7090    3.8970    2.5720 c3        1 MOL      0.027448
     43 C14         5.9290    3.2350    1.9250 c         1 MOL      0.460369
     44 O6          7.0560    3.4180    2.3600 o         1 MOL     -0.552604
     45 C15         4.0640    2.9820    3.7190 c3        1 MOL     -0.282532
     46 C16         3.2140    1.8810    3.1640 c         1 MOL      0.757927
     47 O7          1.9900    2.0620    3.1080 o         1 MOL     -0.729609
     48 O8          3.7390    0.8250    2.8370 o         1 MOL     -0.729609
     49 H21         3.0450    3.5900    1.1630 hn        1 MOL      0.157322
     50 H22         5.1130    4.8240    2.9710 h1        1 MOL      0.090814
     51 H23         3.3770    3.5320    4.3620 hc        1 MOL      0.086654
     52 H24         4.8430    2.5560    4.3660 hc        1 MOL      0.086654
     53 N5          5.7280    2.3610    0.9440 n         1 MOL      0.024029
     54 C17         6.6790    1.7590    0.0070 c3        1 MOL     -0.237709
     55 C18         6.9090    0.2300    0.1770 c         1 MOL      0.544313
     56 O9          7.8310   -0.2160   -0.4650 o         1 MOL     -0.560202
     57 H25         4.7780    2.3470    0.5890 hn        1 MOL      0.018235
     58 H26         7.5810    2.3660   -0.0180 h1        1 MOL      0.118105
     59 H27         6.1940    1.7440   -0.9710 h1        1 MOL      0.118105
     60 N6          6.0220   -0.4780    0.8550 n         1 MOL     -0.117412
     61 C19         6.2680   -1.8510    1.1650 c3        1 MOL     -0.171746
     62 C20         6.0810   -2.8600    0.0330 c         1 MOL      0.393056
     63 O10         6.4620   -4.0270    0.2310 o         1 MOL     -0.513301
     64 C21         5.4060   -2.2520    2.4050 c3        1 MOL     -0.117446
     65 C22         3.9250   -2.4420    2.1410 c         1 MOL      0.459182
     66 N7          3.2640   -2.8690    3.2120 n         1 MOL     -0.725397
     67 O11         3.2740   -2.1430    1.1040 o         1 MOL     -0.230264
     68 H28         5.2190    0.0430    1.1680 hn        1 MOL      0.000890
     69 H29         7.3140   -2.0130    1.4370 h1        1 MOL      0.135484
     70 H30         5.5220   -1.5520    3.2340 hc        1 MOL      0.091131
     71 H31         5.7830   -3.1770    2.8400 hc        1 MOL      0.091131
     72 H32         3.6310   -3.3070    4.0390 hn        1 MOL      0.335857
     73 H33         2.2770   -3.0630    3.1340 hn        1 MOL      0.335857
     74 N8          5.6050   -2.4300   -1.1320 n         1 MOL     -0.198420
     75 C23         5.2600   -3.3070   -2.2740 c3        1 MOL     -0.334909
     76 C24         3.8150   -3.6960   -2.4780 c         1 MOL      0.746429
     77 O12         3.5520   -4.4690   -3.3700 o         1 MOL     -0.608012
     78 H34         5.2520   -1.4860   -1.1480 hn        1 MOL      0.303241
     79 H35         5.7260   -4.2900   -2.1630 h1        1 MOL      0.149853
     80 H36         5.6800   -2.9200   -3.2020 h1        1 MOL      0.149853
     81 N9          2.9350   -3.1970   -1.6320 n         1 MOL     -0.563369
     82 C25         1.5800   -3.6560   -1.5150 c3        1 MOL      0.203996
     83 C26         0.5040   -2.6000   -1.1340 c         1 MOL      0.634490
     84 O13         0.7470   -1.6660   -0.3360 o         1 MOL     -0.652765
     85 C27         1.5260   -4.7400   -0.4290 c3        1 MOL      0.467022
     86 C28         2.3360   -5.9600   -0.5890 ca        1 MOL     -0.231388
     87 C29         3.4640   -6.2020    0.1830 ca        1 MOL     -0.061481
     88 C30         1.9690   -6.8660   -1.6080 ca        1 MOL     -0.061481
     89 C31         4.1910   -7.3860   -0.0780 ca        1 MOL     -0.192961
     90 C32         2.6590   -8.0810   -1.7540 ca        1 MOL     -0.192961
     91 C33         3.7790   -8.3720   -1.0030 ca        1 MOL      0.246282
     92 O14         4.5990   -9.4560   -1.1950 oh        1 MOL     -0.472251
     93 H37         3.2660   -2.4530   -1.0330 hn        1 MOL      0.235482
     94 H38         1.2350   -4.1680   -2.4110 h1        1 MOL     -0.008801
     95 H39         0.4880   -5.0810   -0.4060 hc        1 MOL     -0.157472
     96 H40         1.6870   -4.2050    0.5090 hc        1 MOL     -0.157472
     97 H41         3.7160   -5.4330    0.8980 ha        1 MOL      0.090591
     98 H42         1.0470   -6.7630   -2.1700 ha        1 MOL      0.090591
     99 H43         5.1200   -7.6430    0.4140 ha        1 MOL      0.114812
    100 H44         2.3350   -8.8650   -2.4160 ha        1 MOL      0.114812
    101 H45         4.2690  -10.1480   -1.7610 ho        1 MOL      0.368470
    102 N10        -0.6970   -2.7970   -1.6740 n         1 MOL     -0.690320
    103 C34        -1.9030   -1.9570   -1.3740 c3        1 MOL      0.027014
    104 C35        -3.0200   -2.9690   -1.1440 c         1 MOL      0.579494
    105 O15        -3.1880   -3.8930   -1.9750 o         1 MOL     -0.552659
    106 C36        -2.2340   -1.0160   -2.5780 c3        1 MOL      0.105285
    107 C37        -0.9360   -0.1440   -2.8980 c3        1 MOL      0.027091
    108 C38        -3.4350   -0.1910   -2.2720 c3        1 MOL     -0.201126
    109 C39        -1.0660    0.8330   -4.0690 c3        1 MOL     -0.246993
    110 H46        -0.7270   -3.5940   -2.3020 hn        1 MOL      0.349177
    111 H47        -1.6900   -1.3120   -0.5140 h1        1 MOL      0.114116
    112 H48        -2.4170   -1.6270   -3.4670 hc        1 MOL      0.021545
    113 H49        -0.0800   -0.8010   -3.0130 hc        1 MOL      0.037013
    114 H50        -0.5610    0.4390   -2.0530 hc        1 MOL      0.037013
    115 H51        -3.5880    0.5990   -3.0030 hc        1 MOL      0.045001
    116 H52        -4.2660   -0.9030   -2.2640 hc        1 MOL      0.045001
    117 H53        -3.3250    0.2860   -1.2970 hc        1 MOL      0.045001
    118 H54        -0.1210    1.2560   -4.4100 hc        1 MOL      0.058769
    119 H55        -1.4690    0.3400   -4.9600 hc        1 MOL      0.058769
    120 H56        -1.8010    1.5480   -3.6910 hc        1 MOL      0.058769
    121 N11        -3.8170   -2.7170   -0.1650 n         1 MOL     -0.380534
    122 C40        -5.1520   -3.3320    0.0050 c3        1 MOL      0.032645
    123 C41        -6.3670   -2.4320   -0.4850 c         1 MOL      0.434708
    124 O16        -6.2860   -1.1800   -0.5200 o         1 MOL     -0.342203
    125 C42        -5.3350   -3.6300    1.5170 c3        1 MOL      0.042957
    126 O17        -5.2430   -2.4190    2.2130 oh        1 MOL     -0.470831
    127 H57        -3.4980   -1.9800    0.4460 hn        1 MOL      0.243576
    128 H58        -5.2140   -4.2720   -0.5370 h1        1 MOL      0.063565
    129 H59        -4.6050   -4.3810    1.8120 h1        1 MOL      0.055815
    130 H60        -6.3130   -4.0570    1.7580 h1        1 MOL      0.055815
    131 H61        -4.2780   -2.3680    2.2600 ho        1 MOL      0.374994
    132 N12        -7.5050   -3.0110   -0.7420 n         1 MOL     -0.414599
    133 C43        -8.6790   -2.2550   -1.0960 c3        1 MOL      0.145396
    134 C44        -8.9840   -1.0950   -0.0740 c         1 MOL      0.405657
    135 O18        -9.4800   -0.0180   -0.5750 o         1 MOL     -0.489683
    136 C45        -9.8490   -3.2270   -1.2860 c3        1 MOL     -0.379897
    137 H62        -7.6380   -4.0110   -0.6770 hn        1 MOL      0.291341
    138 H63        -8.4810   -1.7480   -2.0370 h1        1 MOL      0.088905
    139 H64        -9.9380   -3.8730   -0.4110 hc        1 MOL      0.117413
    140 H65       -10.7750   -2.6740   -1.4550 hc        1 MOL      0.117413
    141 H66        -9.6550   -3.7830   -2.2020 hc        1 MOL      0.117413
    142 N13        -8.7640   -1.3470    1.2880 n         1 MOL     -0.360571
    143 C46        -8.9020   -0.4410    2.4250 c3        1 MOL      0.084849
    144 C47        -7.7660    0.6570    2.4950 c         1 MOL      0.351288
    145 O19        -8.0010    1.8030    2.9450 o         1 MOL     -0.509858
    146 C48        -8.8390   -1.4020    3.6550 c3        1 MOL     -0.155790
    147 H67        -8.3830   -2.2670    1.4300 hn        1 MOL      0.253521
    148 H68        -9.8830    0.0350    2.3530 h1        1 MOL      0.104032
    149 H69        -9.1550   -0.9430    4.5920 hc        1 MOL      0.055332
    150 H70        -9.5740   -2.1930    3.5410 hc        1 MOL      0.055332
    151 H71        -7.8060   -1.7210    3.7980 hc        1 MOL      0.055332
    152 N14        -6.5590    0.4280    1.9040 n         1 MOL     -0.086637
    153 C49        -5.5520    1.5050    1.5540 c3        1 MOL     -0.059347
    154 C50        -5.9050    2.2550    0.2440 c         1 MOL      0.523283
    155 O20        -5.7760    3.4960    0.2700 o         1 MOL     -0.573469
    156 C51        -4.0840    0.8790    1.4960 c3        1 MOL     -0.114439
    157 C52        -2.8330    1.8360    1.5620 c3        1 MOL     -0.088253
    158 C53        -1.4850    1.0730    1.5560 c         1 MOL      0.715249
    159 O21        -1.3870   -0.1230    1.9690 o         1 MOL     -0.769463
    160 O22        -0.4380    1.6200    1.0900 o         1 MOL     -0.769463
    161 H72        -6.3320   -0.5230    1.6390 hn        1 MOL     -0.009755
    162 H73        -5.5850    2.3370    2.2550 h1        1 MOL      0.106606
    163 H74        -4.0110    0.2310    0.6330 hc        1 MOL      0.041142
    164 H75        -3.9500    0.3970    2.4620 hc        1 MOL      0.041142
    165 H76        -2.9050    2.4680    2.4520 hc        1 MOL      0.044656
    166 H77        -2.7600    2.5510    0.7480 hc        1 MOL      0.044656
    167 N15        -6.5560    1.5920   -0.6930 n         1 MOL     -0.100928
    168 C54        -7.0140    2.3500   -1.9070 c3        1 MOL     -0.280574
    169 H78        -7.2160    1.6500   -2.7170 h1        1 MOL      0.108708
    170 H79        -7.9230    2.9030   -1.6700 h1        1 MOL      0.108708
    171 H80        -6.2350    3.0480   -2.2150 h1        1 MOL      0.108708
    172 H81        -6.5710    0.5810   -0.6740 hn        1 MOL      0.099511
    173 Ca1         1.4640   -0.1530    1.8550 Ca        1 MOL      1.754338
    174 O23         0.5000   -2.4920    2.7270 oh        1 MOL     -0.837997
    175 H82         0.1460   -2.7980    3.5580 ho        1 MOL      0.415445
    176 H83         0.0870   -3.0590    2.0710 ho        1 MOL      0.415445
    177 O24         1.4860   -0.6360    4.5390 oh        1 MOL     -0.837997
    178 H84         1.7900   -1.2160    5.2400 ho        1 MOL      0.415445
    179 H85         1.0070    0.0590    4.9890 ho        1 MOL      0.415445
@<TRIPOS>BOND
     1    1    2 1   
     2    1    4 1   
     3    1    5 1   
     4    1    6 1   
     5    2    3 2   
     6    2    7 1   
     7    7    8 1   
     8    7   15 1   
     9    8    9 1   
    10    8   11 1   
    11    8   16 1   
    12    9   10 2   
    13    9   19 1   
    14   11   12 1   
    15   11   17 1   
    16   11   18 1   
    17   12   13 1   
    18   12   14 1   
    19   19   20 1   
    20   19   28 1   
    21   20   21 1   
    22   20   23 1   
    23   20   29 1   
    24   21   22 2   
    25   21   41 1   
    26   23   24 1   
    27   23   30 1   
    28   23   31 1   
    29   24   25 1   
    30   24   32 1   
    31   24   33 1   
    32   25   26 1   
    33   25   34 1   
    34   25   35 1   
    35   26   27 1   
    36   26   36 1   
    37   26   37 1   
    38   27   38 1   
    39   27   39 1   
    40   27   40 1   
    41   41   42 1   
    42   41   49 1   
    43   42   43 1   
    44   42   45 1   
    45   42   50 1   
    46   43   44 2   
    47   43   53 1   
    48   45   46 1   
    49   45   51 1   
    50   45   52 1   
    51   46   47 1   
    52   46   48 1   
    53   53   54 1   
    54   53   57 1   
    55   54   55 1   
    56   54   58 1   
    57   54   59 1   
    58   55   56 2   
    59   55   60 1   
    60   60   61 1   
    61   60   68 1   
    62   61   62 1   
    63   61   64 1   
    64   61   69 1   
    65   62   63 2   
    66   62   74 1   
    67   64   65 1   
    68   64   70 1   
    69   64   71 1   
    70   65   66 1   
    71   65   67 2   
    72   66   72 1   
    73   66   73 1   
    74   74   75 1   
    75   74   78 1   
    76   75   76 1   
    77   75   79 1   
    78   75   80 1   
    79   76   77 2   
    80   76   81 1   
    81   81   82 1   
    82   81   93 1   
    83   82   83 1   
    84   82   85 1   
    85   82   94 1   
    86   83   84 2   
    87   83  102 1   
    88   85   86 1   
    89   85   95 1   
    90   85   96 1   
    91   86   87 ar  
    92   86   88 ar  
    93   87   89 ar  
    94   87   97 1   
    95   88   90 ar  
    96   88   98 1   
    97   89   91 ar  
    98   89   99 1   
    99   90   91 ar  
   100   90  100 1   
   101   91   92 1   
   102   92  101 1   
   103  102  103 1   
   104  102  110 1   
   105  103  104 1   
   106  103  106 1   
   107  103  111 1   
   108  104  105 2   
   109  104  121 1   
   110  106  107 1   
   111  106  108 1   
   112  106  112 1   
   113  107  109 1   
   114  107  113 1   
   115  107  114 1   
   116  108  115 1   
   117  108  116 1   
   118  108  117 1   
   119  109  118 1   
   120  109  119 1   
   121  109  120 1   
   122  121  122 1   
   123  121  127 1   
   124  122  123 1   
   125  122  125 1   
   126  122  128 1   
   127  123  124 2   
   128  123  132 1   
   129  125  126 1   
   130  125  129 1   
   131  125  130 1   
   132  126  131 1   
   133  132  133 1   
   134  132  137 1   
   135  133  134 1   
   136  133  136 1   
   137  133  138 1   
   138  134  135 2   
   139  134  142 1   
   140  136  139 1   
   141  136  140 1   
   142  136  141 1   
   143  142  143 1   
   144  142  147 1   
   145  143  144 1   
   146  143  146 1   
   147  143  148 1   
   148  144  145 2   
   149  144  152 1   
   150  146  149 1   
   151  146  150 1   
   152  146  151 1   
   153  152  153 1   
   154  152  161 1   
   155  153  154 1   
   156  153  156 1   
   157  153  162 1   
   158  154  155 2   
   159  154  167 1   
   160  156  157 1   
   161  156  163 1   
   162  156  164 1   
   163  157  158 1   
   164  157  165 1   
   165  157  166 1   
   166  158  159 1   
   167  158  160 1   
   168  167  168 1   
   169  167  172 1   
   170  168  169 1   
   171  168  170 1   
   172  168  171 1   
   173  174  175 1   
   174  174  176 1   
   175  177  178 1   
   176  177  179 1   
@<TRIPOS>SUBSTRUCTURE
     1 MOL         1 TEMP              0 ****  ****    0 ROOT
