@<TRIPOS>MOLECULE
MOL
  175   173     1     0     0
SMALL
resp


@<TRIPOS>ATOM
      1 C1          0.6860    4.6010    5.5650 c3        1 MOL     -0.485519
      2 C2          0.1560    4.3850    4.0940 c         1 MOL      0.655992
      3 O1          0.9950    4.3510    3.1970 o         1 MOL     -0.522898
      4 H1          1.2090    5.5560    5.6250 hc        1 MOL      0.126214
      5 H2         -0.1540    4.6050    6.2580 hc        1 MOL      0.126214
      6 H3          1.3720    3.7960    5.8270 hc        1 MOL      0.126214
      7 N1         -1.1490    4.2000    3.8260 n         1 MOL     -0.609618
      8 C3         -1.6370    3.7310    2.5350 c3        1 MOL      0.030912
      9 C4         -1.7010    4.8830    1.4770 c         1 MOL      0.669923
     10 O2         -1.8400    6.0530    1.8120 o         1 MOL     -0.569697
     11 C5         -3.0610    3.1060    2.8110 c3        1 MOL     -0.339138
     12 C6         -3.7560    2.5080    1.5560 c         1 MOL      0.684844
     13 O3         -4.9640    2.4450    1.6040 o         1 MOL     -0.627202
     14 O4         -3.0780    2.1810    0.5480 o         1 MOL     -0.627202
     15 H4         -1.8210    4.4230    4.5350 hn        1 MOL      0.333715
     16 H5         -1.0140    2.9140    2.1830 h1        1 MOL      0.171381
     17 H6         -3.7160    3.8380    3.2800 hc        1 MOL      0.072649
     18 H7         -3.0400    2.3140    3.5640 hc        1 MOL      0.072649
     19 N2         -1.5760    4.5140    0.1490 n         1 MOL     -0.655907
     20 C7         -1.8030    5.4940   -0.9670 c3        1 MOL      0.362069
     21 C8         -2.9750    5.1230   -1.9140 c         1 MOL      0.357871
     22 O5         -3.3280    5.9540   -2.7670 o         1 MOL     -0.569191
     23 C9         -0.4860    5.6070   -1.7280 c3        1 MOL     -0.127976
     24 H8         -1.3740    3.5440   -0.0780 hn        1 MOL      0.381941
     25 H9         -1.9670    6.4850   -0.5440 h1        1 MOL     -0.000249
     26 H10        -0.1490    4.6480   -2.1070 hc        1 MOL      0.024221
     27 H11        -0.5720    6.2860   -2.5800 hc        1 MOL      0.024221
     28 H12         0.1800    6.0160   -0.9820 hc        1 MOL      0.024221
     29 N3         -3.5830    3.9120   -1.8620 n         1 MOL     -0.376506
     30 C10        -4.5460    3.4130   -2.8200 c3        1 MOL      0.221226
     31 C11        -5.7860    2.6570   -2.2730 c         1 MOL      0.309686
     32 O6         -6.6160    2.3960   -3.1030 o         1 MOL     -0.531770
     33 C12        -3.7980    2.5160   -3.8930 c3        1 MOL     -0.258019
     34 C13        -3.1000    1.3080   -3.2770 c         1 MOL      0.738505
     35 O7         -3.3740    0.9190   -2.1200 o         1 MOL     -0.702871
     36 O8         -2.2800    0.6500   -3.9780 o         1 MOL     -0.702871
     37 H13        -3.1340    3.3120   -1.1900 hn        1 MOL      0.273609
     38 H14        -4.9840    4.2410   -3.3680 h1        1 MOL      0.058909
     39 H15        -3.0820    3.1050   -4.4680 hc        1 MOL      0.055977
     40 H16        -4.5350    2.0780   -4.5680 hc        1 MOL      0.055977
     41 N4         -5.9350    2.3720   -0.9910 n         1 MOL     -0.100120
     42 C14        -7.1070    1.6140   -0.4300 c3        1 MOL     -0.370158
     43 C15        -7.3610    0.1420   -0.9030 c         1 MOL      0.560605
     44 O9         -8.4650   -0.3600   -0.7240 o         1 MOL     -0.597194
     45 H17        -5.1050    2.4290   -0.4180 hn        1 MOL      0.040885
     46 H18        -7.9510    2.2380   -0.7110 h1        1 MOL      0.162173
     47 H19        -6.9230    1.6340    0.6450 h1        1 MOL      0.162173
     48 N5         -6.3510   -0.4740   -1.5440 n         1 MOL     -0.304778
     49 C16        -6.3950   -1.8850   -1.9340 c3        1 MOL     -0.029640
     50 C17        -6.4050   -2.9940   -0.8260 c         1 MOL      0.351245
     51 O10        -6.1760   -4.1640   -1.1530 o         1 MOL     -0.482657
     52 C18        -5.2970   -2.2880   -2.9340 c3        1 MOL     -0.079101
     53 C19        -3.9240   -2.2500   -2.4200 c         1 MOL      0.565032
     54 N6         -3.0440   -1.9970   -3.3600 n         1 MOL     -0.706419
     55 O11        -3.5730   -2.2740   -1.2810 o         1 MOL     -0.365945
     56 H20        -5.4840    0.0430   -1.4960 hn        1 MOL      0.304121
     57 H21        -7.3760   -1.9800   -2.3990 h1        1 MOL      0.114298
     58 H22        -5.3990   -1.6010   -3.7870 hc        1 MOL      0.027934
     59 H23        -5.4850   -3.2560   -3.4090 hc        1 MOL      0.027934
     60 H24        -3.4160   -1.8070   -4.2790 hn        1 MOL      0.353550
     61 H25        -2.1380   -1.6210   -3.1470 hn        1 MOL      0.353550
     62 N7         -6.5510   -2.6400    0.4430 n         1 MOL     -0.181713
     63 C20        -6.6000   -3.4960    1.5790 c3        1 MOL     -0.203383
     64 C21        -5.2820   -4.2030    1.9370 c         1 MOL      0.448394
     65 O12        -5.4300   -5.1780    2.6360 o         1 MOL     -0.555383
     66 H26        -6.8980   -1.7100    0.6220 hn        1 MOL      0.219280
     67 H27        -7.3640   -4.2300    1.3310 h1        1 MOL      0.118144
     68 H28        -7.0550   -3.0100    2.4450 h1        1 MOL      0.118144
     69 N8         -4.1030   -3.8360    1.3940 n         1 MOL     -0.121559
     70 C22        -2.8430   -4.4620    1.7760 c3        1 MOL     -0.098637
     71 C23        -1.7420   -3.4400    1.7450 c         1 MOL      0.455945
     72 O13        -1.7830   -2.5440    0.8430 o         1 MOL     -0.623990
     73 C24        -2.4400   -5.5300    0.7420 c3        1 MOL      0.469986
     74 C25        -3.3700   -6.7180    0.5380 c3        1 MOL     -0.483861
     75 O14        -2.3320   -5.0300   -0.6270 oh        1 MOL     -0.599899
     76 H29        -4.0690   -3.0750    0.7310 hn        1 MOL      0.050727
     77 H30        -2.9660   -4.9280    2.7540 h1        1 MOL      0.078127
     78 H31        -1.4850   -5.9810    1.0210 h1        1 MOL     -0.023361
     79 H32        -1.9900   -4.1400   -0.5930 ho        1 MOL      0.382981
     80 H33        -4.3650   -6.3960    0.2180 hc        1 MOL      0.126171
     81 H34        -2.9340   -7.4010   -0.1910 hc        1 MOL      0.126171
     82 H35        -3.2230   -7.2310    1.4820 hc        1 MOL      0.126171
     83 N9         -0.6840   -3.5880    2.5620 n         1 MOL     -0.514784
     84 C26         0.5080   -2.8080    2.2590 c3        1 MOL      0.148639
     85 C27         1.1370   -3.1350    0.9270 c         1 MOL      0.487228
     86 O15         1.1600   -4.3140    0.5460 o         1 MOL     -0.573608
     87 C28         1.4940   -2.9640    3.5100 c3        1 MOL     -0.102908
     88 C29         0.9700   -2.2690    4.7350 c3        1 MOL     -0.245896
     89 C30         2.9600   -2.5210    3.1280 c3        1 MOL     -0.017706
     90 C31         1.0630   -0.7710    4.8250 c3        1 MOL     -0.155557
     91 H36        -0.6070   -4.4280    3.1270 hn        1 MOL      0.306967
     92 H37         0.2320   -1.7530    2.1760 h1        1 MOL      0.266388
     93 H38         1.4800   -4.0460    3.6670 hc        1 MOL      0.039910
     94 H39         1.5230   -2.5950    5.6190 hc        1 MOL      0.081175
     95 H40        -0.1080   -2.4120    4.8430 hc        1 MOL      0.081175
     96 H41         3.4600   -3.3090    2.5600 hc        1 MOL      0.022485
     97 H42         2.8040   -1.5690    2.6220 hc        1 MOL      0.022485
     98 H43         3.6050   -2.4090    3.9970 hc        1 MOL      0.022485
     99 H44         0.5810   -0.3090    3.9640 hc        1 MOL      0.053173
    100 H45         0.6810   -0.5000    5.8090 hc        1 MOL      0.053173
    101 H46         2.1180   -0.5200    4.6950 hc        1 MOL      0.053173
    102 N10         1.7000   -2.1420    0.2230 n         1 MOL     -0.101712
    103 C32         2.5510   -2.2120   -0.9590 c3        1 MOL      0.354408
    104 C33         4.0160   -1.7980   -0.5670 c         1 MOL      0.257167
    105 O16         4.2740   -1.1980    0.4570 o         1 MOL     -0.228020
    106 C34         2.0850   -1.2920   -2.1040 c3        1 MOL     -0.559125
    107 C35         0.6320   -1.5620   -2.4860 c         1 MOL      0.781648
    108 O17        -0.3050   -1.1300   -1.7840 o         1 MOL     -0.680459
    109 O18         0.3530   -2.3950   -3.3870 o         1 MOL     -0.680459
    110 H47         1.5660   -1.2110    0.5690 hn        1 MOL     -0.163681
    111 H48         2.5950   -3.2560   -1.2580 h1        1 MOL      0.020201
    112 H49         2.7320   -1.5500   -2.9440 hc        1 MOL      0.175020
    113 H50         2.2700   -0.2740   -1.7630 hc        1 MOL      0.175020
    114 N11         5.0090   -2.1400   -1.4190 n         1 MOL     -0.562767
    115 C36         6.4810   -1.8230   -1.1420 c3        1 MOL      0.228220
    116 C37         6.8640   -0.2940   -1.0250 c         1 MOL      0.369928
    117 O19         7.6760   -0.0090   -0.1400 o         1 MOL     -0.458817
    118 C38         7.3320   -2.4400   -2.2870 c3        1 MOL     -0.096723
    119 C39         8.8050   -2.0970   -2.1650 ca        1 MOL      0.140959
    120 C40         9.5140   -2.3820   -0.9900 ca        1 MOL     -0.272216
    121 C41         9.4700   -1.4160   -3.2190 ca        1 MOL     -0.272216
    122 C42        10.7950   -1.9070   -0.8200 ca        1 MOL      0.010243
    123 C43        10.8180   -1.0420   -3.0510 ca        1 MOL      0.010243
    124 C44        11.5010   -1.3010   -1.8710 ca        1 MOL     -0.207819
    125 H51         4.7910   -2.5440   -2.3170 hn        1 MOL      0.335413
    126 H52         6.8760   -2.3570   -0.2820 h1        1 MOL      0.090747
    127 H53         7.0280   -2.1690   -3.2980 hc        1 MOL      0.037709
    128 H54         7.2310   -3.5280   -2.2660 hc        1 MOL      0.037709
    129 H55         8.9670   -2.8950   -0.2210 ha        1 MOL      0.135466
    130 H56         8.9920   -1.1560   -4.1460 ha        1 MOL      0.135466
    131 H57        11.3510   -2.0770    0.0870 ha        1 MOL      0.078987
    132 H58        11.3600   -0.6310   -3.8920 ha        1 MOL      0.078987
    133 H59        12.5430   -1.0420   -1.7960 ha        1 MOL      0.116393
    134 N12         6.2820    0.6650   -1.7900 n         1 MOL     -0.087902
    135 C45         6.3740    2.0770   -1.4320 c3        1 MOL      0.057215
    136 C46         5.7050    2.4130   -0.1030 c         1 MOL      0.222613
    137 O20         6.1530    3.3940    0.5730 o         1 MOL     -0.541527
    138 C47         5.8270    2.8620   -2.6360 c3        1 MOL     -0.155019
    139 C48         4.7690    1.8820   -3.1750 c3        1 MOL      0.013602
    140 C49         5.3430    0.5040   -2.9060 c3        1 MOL      0.114145
    141 H60         7.4550    2.2410   -1.4540 h1        1 MOL      0.077535
    142 H61         5.3050    3.7800   -2.3590 hc        1 MOL      0.062367
    143 H62         6.6380    3.0130   -3.3500 hc        1 MOL      0.062367
    144 H63         3.8410    2.0320   -2.6110 hc        1 MOL      0.056066
    145 H64         4.5770    2.0600   -4.2270 hc        1 MOL      0.056066
    146 H65         4.5190   -0.1850   -2.7750 h1        1 MOL     -0.028882
    147 H66         5.9260    0.2260   -3.7940 h1        1 MOL     -0.028882
    148 N13         4.7260    1.7570    0.3760 n         1 MOL      0.561649
    149 C50         4.0520    1.9510    1.6250 c3        1 MOL     -0.271855
    150 C51         4.8590    1.4550    2.8700 c         1 MOL      0.486262
    151 O21         5.0210    2.0900    3.8640 o         1 MOL     -0.543346
    152 C52         2.5740    1.4100    1.5000 c3        1 MOL      0.243481
    153 C53         1.7620    2.1590    0.4070 c3        1 MOL      0.109732
    154 C54         0.3750    1.5620    0.2540 c         1 MOL      0.425356
    155 O22        -0.0560    0.6250    0.9430 o         1 MOL     -0.641272
    156 O23        -0.3690    1.9740   -0.6880 o         1 MOL     -0.641272
    157 H67         4.4580    0.8840   -0.0560 hn        1 MOL     -0.721821
    158 H68         4.0430    3.0310    1.7220 h1        1 MOL      0.107107
    159 H69         2.1910    1.5770    2.5040 hc        1 MOL     -0.041336
    160 H70         2.5880    0.3240    1.3960 hc        1 MOL     -0.041336
    161 H71         2.3140    2.2570   -0.5300 hc        1 MOL      0.007393
    162 H72         1.6450    3.1810    0.7700 hc        1 MOL      0.007393
    163 N14         5.4340    0.2660    2.7650 n         1 MOL     -0.042465
    164 C55         6.5150   -0.2160    3.5880 c3        1 MOL     -0.159021
    165 H73         7.1050    0.6290    3.9430 h1        1 MOL      0.062064
    166 H74         6.1090   -0.7590    4.4410 h1        1 MOL      0.062064
    167 H75         7.1490   -0.8810    3.0020 h1        1 MOL      0.062064
    168 H76         5.1230   -0.3280    2.0130 hn        1 MOL      0.107580
    169 Ca1        -2.1350   -0.2030   -0.2190 Ca        1 MOL      1.623892
    170 O24        -2.1060   -0.0010    2.6120 oh        1 MOL     -0.738351
    171 H77        -1.1850    0.0470    2.8940 ho        1 MOL      0.363064
    172 H78        -2.6020    0.2640    3.3870 ho        1 MOL      0.363064
    173 O25        -4.7010   -0.3210    0.7920 oh        1 MOL     -0.738351
    174 H79        -4.9290   -0.6400    1.6630 ho        1 MOL      0.363064
    175 H80        -4.7950    0.6300    0.8520 ho        1 MOL      0.363064
@<TRIPOS>BOND
     1    1    2 1   
     2    1    4 1   
     3    1    5 1   
     4    1    6 1   
     5    2    3 2   
     6    2    7 1   
     7    7    8 1   
     8    7   15 1   
     9    8    9 1   
    10    8   11 1   
    11    8   16 1   
    12    9   10 2   
    13    9   19 1   
    14   11   12 1   
    15   11   17 1   
    16   11   18 1   
    17   12   13 1   
    18   12   14 1   
    19   19   20 1   
    20   19   24 1   
    21   20   21 1   
    22   20   23 1   
    23   20   25 1   
    24   21   22 2   
    25   21   29 1   
    26   23   26 1   
    27   23   27 1   
    28   23   28 1   
    29   29   30 1   
    30   29   37 1   
    31   30   31 1   
    32   30   33 1   
    33   30   38 1   
    34   31   32 2   
    35   31   41 1   
    36   33   34 1   
    37   33   39 1   
    38   33   40 1   
    39   34   35 1   
    40   34   36 1   
    41   41   42 1   
    42   41   45 1   
    43   42   43 1   
    44   42   46 1   
    45   42   47 1   
    46   43   44 2   
    47   43   48 1   
    48   48   49 1   
    49   48   56 1   
    50   49   50 1   
    51   49   52 1   
    52   49   57 1   
    53   50   51 2   
    54   50   62 1   
    55   52   53 1   
    56   52   58 1   
    57   52   59 1   
    58   53   54 1   
    59   53   55 2   
    60   54   60 1   
    61   54   61 1   
    62   62   63 1   
    63   62   66 1   
    64   63   64 1   
    65   63   67 1   
    66   63   68 1   
    67   64   65 2   
    68   64   69 1   
    69   69   70 1   
    70   69   76 1   
    71   70   71 1   
    72   70   73 1   
    73   70   77 1   
    74   71   72 2   
    75   71   83 1   
    76   73   74 1   
    77   73   75 1   
    78   73   78 1   
    79   74   80 1   
    80   74   81 1   
    81   74   82 1   
    82   75   79 1   
    83   83   84 1   
    84   83   91 1   
    85   84   85 1   
    86   84   87 1   
    87   84   92 1   
    88   85   86 2   
    89   85  102 1   
    90   87   88 1   
    91   87   89 1   
    92   87   93 1   
    93   88   90 1   
    94   88   94 1   
    95   88   95 1   
    96   89   96 1   
    97   89   97 1   
    98   89   98 1   
    99   90   99 1   
   100   90  100 1   
   101   90  101 1   
   102  102  103 1   
   103  102  110 1   
   104  103  104 1   
   105  103  106 1   
   106  103  111 1   
   107  104  105 2   
   108  104  114 1   
   109  106  107 1   
   110  106  112 1   
   111  106  113 1   
   112  107  108 1   
   113  107  109 1   
   114  114  115 1   
   115  114  125 1   
   116  115  116 1   
   117  115  118 1   
   118  115  126 1   
   119  116  117 2   
   120  116  134 1   
   121  118  119 1   
   122  118  127 1   
   123  118  128 1   
   124  119  120 ar  
   125  119  121 ar  
   126  120  122 ar  
   127  120  129 1   
   128  121  123 ar  
   129  121  130 1   
   130  122  124 ar  
   131  122  131 1   
   132  123  124 ar  
   133  123  132 1   
   134  124  133 1   
   135  134  135 1   
   136  134  140 1   
   137  135  136 1   
   138  135  138 1   
   139  135  141 1   
   140  136  137 2   
   141  136  148 1   
   142  138  139 1   
   143  138  142 1   
   144  138  143 1   
   145  139  140 1   
   146  139  144 1   
   147  139  145 1   
   148  140  146 1   
   149  140  147 1   
   150  148  149 1   
   151  148  157 1   
   152  149  150 1   
   153  149  152 1   
   154  149  158 1   
   155  150  151 2   
   156  150  163 1   
   157  152  153 1   
   158  152  159 1   
   159  152  160 1   
   160  153  154 1   
   161  153  161 1   
   162  153  162 1   
   163  154  155 1   
   164  154  156 1   
   165  163  164 1   
   166  163  168 1   
   167  164  165 1   
   168  164  166 1   
   169  164  167 1   
   170  170  171 1   
   171  170  172 1   
   172  173  174 1   
   173  173  175 1   
@<TRIPOS>SUBSTRUCTURE
     1 MOL         1 TEMP              0 ****  ****    0 ROOT
