@<TRIPOS>MOLECULE
MOL
  175   173     1     0     0
SMALL
resp


@<TRIPOS>ATOM
      1 C1         -0.0120    4.3960    5.4430 c3        1 MOL     -0.359270
      2 C2         -0.5500    4.5520    4.0360 c         1 MOL      0.684901
      3 O1          0.2580    5.0200    3.1960 o         1 MOL     -0.573255
      4 H1          1.0240    4.7350    5.4760 hc        1 MOL      0.081882
      5 H2         -0.6110    4.9940    6.1310 hc        1 MOL      0.081882
      6 H3         -0.0600    3.3480    5.7370 hc        1 MOL      0.081882
      7 N1         -1.7340    4.0270    3.7930 n         1 MOL     -0.581617
      8 C3         -2.2410    3.7120    2.4440 c3        1 MOL      0.059034
      9 C4         -2.4850    4.9170    1.5450 c         1 MOL      0.630662
     10 O2         -3.1030    5.8930    1.9160 o         1 MOL     -0.559265
     11 C5         -3.5520    3.0500    2.7380 c3        1 MOL     -0.378839
     12 C6         -4.0520    2.3380    1.4870 c         1 MOL      0.833184
     13 O3         -5.2850    2.0130    1.4650 o         1 MOL     -0.703178
     14 O4         -3.2800    1.9790    0.6040 o         1 MOL     -0.703178
     15 H4         -2.2330    3.6940    4.6170 hn        1 MOL      0.326594
     16 H5         -1.5840    3.0440    1.8990 h1        1 MOL      0.157694
     17 H6         -4.2820    3.7960    3.0620 hc        1 MOL      0.093197
     18 H7         -3.4420    2.2490    3.4630 hc        1 MOL      0.093197
     19 N2         -2.1930    4.6800    0.2460 n         1 MOL     -0.550901
     20 C7         -2.4710    5.5260   -0.9100 c3        1 MOL      0.247112
     21 C8         -3.4920    5.0490   -1.8980 c         1 MOL      0.355312
     22 O5         -3.8830    5.8470   -2.7520 o         1 MOL     -0.563289
     23 C9         -1.1080    5.8730   -1.5780 c3        1 MOL     -0.054178
     24 H8         -1.8010    3.7880   -0.0170 hn        1 MOL      0.216866
     25 H9         -2.7400    6.5010   -0.4960 h1        1 MOL      0.030661
     26 H10        -0.3360    6.1530   -0.8590 hc        1 MOL      0.015919
     27 H11        -0.6670    5.0270   -2.1230 hc        1 MOL      0.015919
     28 H12        -1.1720    6.6960   -2.2850 hc        1 MOL      0.015919
     29 N3         -4.0430    3.8390   -1.7840 n         1 MOL     -0.172297
     30 C10        -5.0120    3.2750   -2.8040 c3        1 MOL      0.045189
     31 C11        -6.2940    2.6050   -2.2820 c         1 MOL      0.378832
     32 O6         -7.3450    2.7560   -2.9780 o         1 MOL     -0.573118
     33 C12        -4.1360    2.3500   -3.6800 c3        1 MOL     -0.175864
     34 C13        -3.4010    1.2890   -2.9380 c         1 MOL      0.598123
     35 O7         -4.0100    0.6160   -2.0430 o         1 MOL     -0.667848
     36 O8         -2.1330    1.1360   -2.9240 o         1 MOL     -0.667848
     37 H13        -3.8660    3.3160   -0.9440 hn        1 MOL      0.228277
     38 H14        -5.4640    4.1690   -3.2620 h1        1 MOL      0.084805
     39 H15        -3.4020    2.9570   -4.1990 hc        1 MOL      0.056447
     40 H16        -4.7540    1.9550   -4.4940 hc        1 MOL      0.056447
     41 N4         -6.3240    1.9180   -1.1540 n         1 MOL     -0.070112
     42 C14        -7.4260    1.0190   -0.6800 c3        1 MOL     -0.225441
     43 C15        -7.4170   -0.4400   -1.0720 c         1 MOL      0.477588
     44 O9         -8.4170   -1.1440   -0.7780 o         1 MOL     -0.601019
     45 H17        -5.4510    1.9720   -0.6330 hn        1 MOL     -0.005186
     46 H18        -8.3890    1.4300   -0.9780 h1        1 MOL      0.131828
     47 H19        -7.4150    1.1480    0.4020 h1        1 MOL      0.131828
     48 N5         -6.2960   -0.9920   -1.5640 n         1 MOL     -0.124517
     49 C16        -6.2860   -2.3710   -1.9480 c3        1 MOL     -0.138887
     50 C17        -6.1830   -3.3970   -0.7940 c         1 MOL      0.509071
     51 O10        -6.1500   -4.5860   -1.0870 o         1 MOL     -0.542970
     52 C18        -5.1850   -2.5040   -2.9070 c3        1 MOL     -0.068320
     53 C19        -3.8270   -2.3280   -2.3140 c         1 MOL      0.502211
     54 N6         -2.8020   -2.4370   -3.1630 n         1 MOL     -0.668988
     55 O11        -3.5890   -2.2420   -1.1070 o         1 MOL     -0.310668
     56 H20        -5.4720   -0.4360   -1.7380 hn        1 MOL      0.155909
     57 H21        -7.2190   -2.5380   -2.5000 h1        1 MOL      0.108742
     58 H22        -5.3320   -1.7910   -3.7280 hc        1 MOL      0.041707
     59 H23        -5.1590   -3.4950   -3.3370 hc        1 MOL      0.041707
     60 H24        -3.0020   -2.3900   -4.1500 hn        1 MOL      0.328190
     61 H25        -1.8530   -2.1990   -2.9080 hn        1 MOL      0.328190
     62 N7         -6.0330   -2.9050    0.4360 n         1 MOL     -0.219823
     63 C20        -6.0380   -3.7840    1.6240 c3        1 MOL     -0.204592
     64 C21        -4.7670   -4.5680    1.8720 c         1 MOL      0.493146
     65 O12        -4.7800   -5.5280    2.6730 o         1 MOL     -0.581984
     66 H26        -5.7760   -1.9340    0.5460 hn        1 MOL      0.210737
     67 H27        -6.8970   -4.4520    1.6110 h1        1 MOL      0.106304
     68 H28        -6.1840   -3.1860    2.5280 h1        1 MOL      0.106304
     69 N8         -3.6560   -4.1500    1.3350 n         1 MOL     -0.056768
     70 C22        -2.3030   -4.6080    1.4400 c3        1 MOL     -0.325703
     71 C23        -1.2320   -3.4420    1.4280 c         1 MOL      0.725553
     72 O13        -1.4780   -2.3730    0.8290 o         1 MOL     -0.694096
     73 C24        -1.9360   -5.6090    0.3220 c3        1 MOL      0.531385
     74 C25        -2.5610   -7.0060    0.4550 c3        1 MOL     -0.566429
     75 O14        -2.2700   -5.1180   -0.9470 oh        1 MOL     -0.575528
     76 H29        -3.7540   -3.3330    0.7520 hn        1 MOL      0.026728
     77 H30        -2.1310   -5.1520    2.3770 h1        1 MOL      0.101187
     78 H31        -0.8600   -5.7180    0.2880 h1        1 MOL     -0.029062
     79 H32        -2.2980   -4.1640   -0.9680 ho        1 MOL      0.313441
     80 H33        -2.5820   -7.3940    1.4750 hc        1 MOL      0.143338
     81 H34        -3.6210   -6.9700    0.2010 hc        1 MOL      0.143338
     82 H35        -2.1890   -7.7670   -0.2210 hc        1 MOL      0.143338
     83 N9         -0.1810   -3.7480    2.1150 n         1 MOL     -0.592902
     84 C26         1.0320   -2.9740    1.9960 c3        1 MOL      0.078600
     85 C27         1.7850   -3.2420    0.6770 c         1 MOL      0.607071
     86 O15         2.0660   -4.3530    0.2900 o         1 MOL     -0.582671
     87 C28         1.9350   -3.0190    3.2670 c3        1 MOL     -0.057926
     88 C29         1.3270   -1.8690    4.1670 c3        1 MOL      0.176417
     89 C30         3.3970   -2.6210    3.0450 c3        1 MOL     -0.249061
     90 C31         1.8890   -2.0920    5.5800 c3        1 MOL     -0.149969
     91 H36        -0.1240   -4.6400    2.5830 hn        1 MOL      0.320449
     92 H37         0.7590   -1.9300    1.8550 h1        1 MOL      0.109949
     93 H38         1.7110   -4.0060    3.6750 hc        1 MOL      0.053271
     94 H39         0.2390   -1.9400    4.2450 hc        1 MOL     -0.041669
     95 H40         1.5110   -0.8880    3.7300 hc        1 MOL     -0.041669
     96 H41         4.0390   -2.6510    3.9240 hc        1 MOL      0.049964
     97 H42         3.8380   -3.2750    2.2820 hc        1 MOL      0.049964
     98 H43         3.5400   -1.6640    2.5320 hc        1 MOL      0.049964
     99 H44         2.9780   -2.1390    5.5890 hc        1 MOL      0.025347
    100 H45         1.4350   -1.4200    6.3080 hc        1 MOL      0.025347
    101 H46         1.5670   -3.0840    5.8930 hc        1 MOL      0.025347
    102 N10         2.0800   -2.0840   -0.0000 n         1 MOL     -0.120382
    103 C32         2.8080   -1.9980   -1.2320 c3        1 MOL     -0.044165
    104 C33         4.2370   -1.4940   -0.8780 c         1 MOL      0.515615
    105 O16         4.5520   -1.1450    0.2750 o         1 MOL     -0.414365
    106 C34         2.1360   -0.9980   -2.1670 c3        1 MOL     -0.348512
    107 C35         0.6920   -1.4470   -2.5200 c         1 MOL      0.788880
    108 O17        -0.2640   -1.0390   -1.8790 o         1 MOL     -0.703666
    109 O18         0.5570   -2.1990   -3.5520 o         1 MOL     -0.703666
    110 H47         1.5880   -1.2700    0.3200 hn        1 MOL      0.012196
    111 H48         2.9060   -3.0140   -1.6050 h1        1 MOL      0.081842
    112 H49         2.7000   -0.9940   -3.0970 hc        1 MOL      0.101639
    113 H50         2.2610    0.0040   -1.7580 hc        1 MOL      0.101639
    114 N11         5.0760   -1.4960   -1.8860 n         1 MOL     -0.608472
    115 C36         6.5070   -1.2080   -1.6320 c3        1 MOL      0.300579
    116 C37         6.7140    0.3080   -1.0450 c         1 MOL      0.227847
    117 O19         7.2690    0.4090    0.0440 o         1 MOL     -0.468603
    118 C38         7.4030   -1.4940   -2.8680 c3        1 MOL     -0.199960
    119 C39         8.8690   -1.4190   -2.5050 ca        1 MOL      0.150590
    120 C40         9.4120   -2.1550   -1.4070 ca        1 MOL     -0.200919
    121 C41         9.7600   -0.6760   -3.3020 ca        1 MOL     -0.200919
    122 C42        10.8060   -2.2120   -1.1090 ca        1 MOL     -0.074289
    123 C43        11.1620   -0.7170   -3.0510 ca        1 MOL     -0.074289
    124 C44        11.6640   -1.4580   -1.9810 ca        1 MOL     -0.155446
    125 H51         4.8300   -1.6500   -2.8600 hn        1 MOL      0.343925
    126 H52         6.7530   -1.9100   -0.8380 h1        1 MOL      0.079953
    127 H53         7.2630   -0.7970   -3.6910 hc        1 MOL      0.064684
    128 H54         7.2800   -2.5150   -3.2310 hc        1 MOL      0.064684
    129 H55         8.6480   -2.6630   -0.8300 ha        1 MOL      0.109544
    130 H56         9.3570   -0.2850   -4.2290 ha        1 MOL      0.109544
    131 H57        11.2510   -2.7980   -0.3220 ha        1 MOL      0.109049
    132 H58        11.8370   -0.2330   -3.7470 ha        1 MOL      0.109049
    133 H59        12.7360   -1.4920   -1.8480 ha        1 MOL      0.105445
    134 N12         6.2090    1.3970   -1.7050 n         1 MOL     -0.018566
    135 C45         6.3320    2.6690   -1.0400 c3        1 MOL      0.081169
    136 C46         5.5370    2.7500    0.2950 c         1 MOL      0.217443
    137 O20         5.7740    3.7180    1.0850 o         1 MOL     -0.514501
    138 C47         5.7760    3.7660   -2.0330 c3        1 MOL     -0.232003
    139 C48         4.9840    2.8540   -3.0740 c3        1 MOL      0.042756
    140 C49         5.6030    1.4720   -2.9490 c3        1 MOL      0.020886
    141 H60         7.3820    2.9540   -0.9650 h1        1 MOL      0.073961
    142 H61         5.0780    4.4240   -1.5250 hc        1 MOL      0.087665
    143 H62         6.5730    4.2980   -2.5580 hc        1 MOL      0.087665
    144 H63         3.9410    2.8750   -2.7610 hc        1 MOL      0.020808
    145 H64         5.0510    3.1750   -4.1150 hc        1 MOL      0.020808
    146 H65         4.7980    0.7560   -3.1390 h1        1 MOL     -0.000255
    147 H66         6.3670    1.5010   -3.7210 h1        1 MOL     -0.000255
    148 N13         4.7180    1.7820    0.6580 n         1 MOL      0.044658
    149 C50         4.0320    1.8390    1.9750 c3        1 MOL     -0.062239
    150 C51         4.8500    1.1970    3.0730 c         1 MOL      0.403331
    151 O21         4.8720    1.6760    4.1810 o         1 MOL     -0.538096
    152 C52         2.6900    1.2190    1.6980 c3        1 MOL      0.092513
    153 C53         1.7410    2.0870    0.8950 c3        1 MOL     -0.082629
    154 C54         0.4540    1.3480    0.5590 c         1 MOL      0.401954
    155 O22         0.1040    0.2890    1.0950 o         1 MOL     -0.585070
    156 O23        -0.3660    1.8400   -0.2780 o         1 MOL     -0.585070
    157 H67         4.6160    0.9560    0.0750 hn        1 MOL      0.077840
    158 H68         3.7870    2.8590    2.2620 h1        1 MOL      0.097200
    159 H69         2.3670    0.9000    2.6880 hc        1 MOL      0.016359
    160 H70         2.8080    0.3430    1.0570 hc        1 MOL      0.016359
    161 H71         2.2630    2.3620   -0.0250 hc        1 MOL      0.057798
    162 H72         1.5940    3.0410    1.3940 hc        1 MOL      0.057798
    163 N14         5.6200    0.1580    2.6830 n         1 MOL      0.011873
    164 C55         6.6230   -0.4030    3.5830 c3        1 MOL     -0.222561
    165 H73         7.5920    0.0520    3.3750 h1        1 MOL      0.081025
    166 H74         6.3410   -0.1980    4.6160 h1        1 MOL      0.081025
    167 H75         6.6880   -1.4800    3.4310 h1        1 MOL      0.081025
    168 H76         5.5810   -0.1100    1.7160 hn        1 MOL      0.073384
    169 Ca1        -2.2000   -0.1140   -0.3540 Ca        1 MOL      1.707631
    170 O24        -4.4370   -0.5250    1.1650 oh        1 MOL     -0.693984
    171 H77        -5.1080    0.1460    1.2940 ho        1 MOL      0.345433
    172 H78        -3.9020   -0.4780    1.9570 ho        1 MOL      0.345433
    173 O25        -2.0120    0.2530    2.7340 oh        1 MOL     -0.693984
    174 H79        -1.0880    0.0690    2.5470 ho        1 MOL      0.345433
    175 H80        -2.0910    0.1270    3.6880 ho        1 MOL      0.345433
@<TRIPOS>BOND
     1    1    2 1   
     2    1    4 1   
     3    1    5 1   
     4    1    6 1   
     5    2    3 2   
     6    2    7 1   
     7    7    8 1   
     8    7   15 1   
     9    8    9 1   
    10    8   11 1   
    11    8   16 1   
    12    9   10 2   
    13    9   19 1   
    14   11   12 1   
    15   11   17 1   
    16   11   18 1   
    17   12   13 1   
    18   12   14 1   
    19   19   20 1   
    20   19   24 1   
    21   20   21 1   
    22   20   23 1   
    23   20   25 1   
    24   21   22 2   
    25   21   29 1   
    26   23   26 1   
    27   23   27 1   
    28   23   28 1   
    29   29   30 1   
    30   29   37 1   
    31   30   31 1   
    32   30   33 1   
    33   30   38 1   
    34   31   32 2   
    35   31   41 1   
    36   33   34 1   
    37   33   39 1   
    38   33   40 1   
    39   34   35 1   
    40   34   36 1   
    41   41   42 1   
    42   41   45 1   
    43   42   43 1   
    44   42   46 1   
    45   42   47 1   
    46   43   44 2   
    47   43   48 1   
    48   48   49 1   
    49   48   56 1   
    50   49   50 1   
    51   49   52 1   
    52   49   57 1   
    53   50   51 2   
    54   50   62 1   
    55   52   53 1   
    56   52   58 1   
    57   52   59 1   
    58   53   54 1   
    59   53   55 2   
    60   54   60 1   
    61   54   61 1   
    62   62   63 1   
    63   62   66 1   
    64   63   64 1   
    65   63   67 1   
    66   63   68 1   
    67   64   65 2   
    68   64   69 1   
    69   69   70 1   
    70   69   76 1   
    71   70   71 1   
    72   70   73 1   
    73   70   77 1   
    74   71   72 2   
    75   71   83 1   
    76   73   74 1   
    77   73   75 1   
    78   73   78 1   
    79   74   80 1   
    80   74   81 1   
    81   74   82 1   
    82   75   79 1   
    83   83   84 1   
    84   83   91 1   
    85   84   85 1   
    86   84   87 1   
    87   84   92 1   
    88   85   86 2   
    89   85  102 1   
    90   87   88 1   
    91   87   89 1   
    92   87   93 1   
    93   88   90 1   
    94   88   94 1   
    95   88   95 1   
    96   89   96 1   
    97   89   97 1   
    98   89   98 1   
    99   90   99 1   
   100   90  100 1   
   101   90  101 1   
   102  102  103 1   
   103  102  110 1   
   104  103  104 1   
   105  103  106 1   
   106  103  111 1   
   107  104  105 2   
   108  104  114 1   
   109  106  107 1   
   110  106  112 1   
   111  106  113 1   
   112  107  108 1   
   113  107  109 1   
   114  114  115 1   
   115  114  125 1   
   116  115  116 1   
   117  115  118 1   
   118  115  126 1   
   119  116  117 2   
   120  116  134 1   
   121  118  119 1   
   122  118  127 1   
   123  118  128 1   
   124  119  120 ar  
   125  119  121 ar  
   126  120  122 ar  
   127  120  129 1   
   128  121  123 ar  
   129  121  130 1   
   130  122  124 ar  
   131  122  131 1   
   132  123  124 ar  
   133  123  132 1   
   134  124  133 1   
   135  134  135 1   
   136  134  140 1   
   137  135  136 1   
   138  135  138 1   
   139  135  141 1   
   140  136  137 2   
   141  136  148 1   
   142  138  139 1   
   143  138  142 1   
   144  138  143 1   
   145  139  140 1   
   146  139  144 1   
   147  139  145 1   
   148  140  146 1   
   149  140  147 1   
   150  148  149 1   
   151  148  157 1   
   152  149  150 1   
   153  149  152 1   
   154  149  158 1   
   155  150  151 2   
   156  150  163 1   
   157  152  153 1   
   158  152  159 1   
   159  152  160 1   
   160  153  154 1   
   161  153  161 1   
   162  153  162 1   
   163  154  155 1   
   164  154  156 1   
   165  163  164 1   
   166  163  168 1   
   167  164  165 1   
   168  164  166 1   
   169  164  167 1   
   170  170  171 1   
   171  170  172 1   
   172  173  174 1   
   173  173  175 1   
@<TRIPOS>SUBSTRUCTURE
     1 MOL         1 TEMP              0 ****  ****    0 ROOT
