@<TRIPOS>MOLECULE
MOL
  189   185     1     0     0
SMALL
resp


@<TRIPOS>ATOM
      1 C1         -1.0280    2.8480    5.8400 c3        1 MOL     -0.319783
      2 C2         -1.0650    2.1410    4.5020 c         1 MOL      0.655566
      3 O1         -0.0620    2.2940    3.7750 o         1 MOL     -0.586272
      4 H1         -0.9070    3.9200    5.6800 hc        1 MOL      0.083496
      5 H2         -1.9610    2.6650    6.3750 hc        1 MOL      0.083496
      6 H3         -0.1910    2.4720    6.4280 hc        1 MOL      0.083496
      7 N1         -2.1770    1.5370    4.0830 n         1 MOL     -0.517427
      8 C3         -2.5380    1.4310    2.6210 c3        1 MOL      0.080999
      9 C4         -2.7730    2.8800    2.0330 c         1 MOL      0.511408
     10 O2         -3.6520    3.6330    2.4640 o         1 MOL     -0.529253
     11 C5         -3.8470    0.6470    2.5250 c3        1 MOL     -0.144248
     12 C6         -4.4720    0.3940    1.1400 c         1 MOL      0.835483
     13 O3         -3.8440    0.5340    0.0960 o         1 MOL     -0.619742
     14 O4         -5.6600    0.1170    1.1180 o         1 MOL     -0.619742
     15 H4         -2.9370    1.4600    4.7520 hn        1 MOL      0.326873
     16 H5         -1.7430    0.8570    2.1380 h1        1 MOL     -0.017827
     17 H6         -4.5580    1.1230    3.1980 hc        1 MOL      0.022069
     18 H7         -3.6760   -0.3580    2.8960 hc        1 MOL      0.022069
     19 N2         -2.0420    3.2570    1.0230 n         1 MOL     -0.279369
     20 C7         -1.8440    4.6510    0.6450 c3        1 MOL      0.078399
     21 C8         -2.8730    5.0390   -0.4680 c         1 MOL      0.388691
     22 O5         -3.1900    6.2330   -0.6290 o         1 MOL     -0.454434
     23 C9         -0.3240    4.9300    0.2080 c3        1 MOL     -0.136455
     24 C10         0.6330    4.9430    1.3830 c3        1 MOL     -0.012710
     25 C11         1.9180    5.6920    0.9970 c3        1 MOL      0.048802
     26 C12         2.9660    5.7570    2.0840 c3        1 MOL     -0.019707
     27 N3          4.2530    6.3710    1.7620 n4        1 MOL     -0.270854
     28 H8         -1.4410    2.5390    0.6590 hn        1 MOL      0.277232
     29 H9         -2.0650    5.2460    1.5280 h1        1 MOL      0.093275
     30 H10        -0.2670    5.9080   -0.2680 hc        1 MOL      0.040697
     31 H11         0.0460    4.0970   -0.3770 hc        1 MOL      0.040697
     32 H12         0.8910    3.9380    1.7180 hc        1 MOL      0.046436
     33 H13         0.2080    5.5710    2.1690 hc        1 MOL      0.046436
     34 H14         1.7330    6.6930    0.6220 hc        1 MOL      0.009936
     35 H15         2.4360    5.1450    0.2170 hc        1 MOL      0.009936
     36 H16         3.1550    4.7240    2.3920 hx        1 MOL      0.074552
     37 H17         2.4960    6.1900    2.9610 hx        1 MOL      0.074552
     38 H18         4.9670    5.9060    2.2880 hn        1 MOL      0.292341
     39 H19         4.6030    6.3000    0.8130 hn        1 MOL      0.292341
     40 H20         4.4020    7.3460    1.9910 hn        1 MOL      0.292341
     41 N4         -3.4250    4.0910   -1.1960 n         1 MOL     -0.245893
     42 C13        -4.0770    4.3050   -2.5370 c3        1 MOL      0.001978
     43 C14        -5.4870    3.6200   -2.6230 c         1 MOL      0.390635
     44 O6         -6.2450    3.9060   -3.5090 o         1 MOL     -0.433645
     45 C15        -3.2530    3.9390   -3.7750 c3        1 MOL     -0.266952
     46 C16        -2.3990    2.6240   -3.4960 c         1 MOL      0.742061
     47 O7         -1.5690    2.3260   -4.3640 o         1 MOL     -0.584623
     48 O8         -2.6140    1.8460   -2.5370 o         1 MOL     -0.584623
     49 H21        -3.0020    3.1710   -1.2050 hn        1 MOL      0.133899
     50 H22        -4.3780    5.3510   -2.6440 h1        1 MOL      0.141384
     51 H23        -2.5730    4.7820   -3.8410 hc        1 MOL      0.119855
     52 H24        -3.7620    3.7700   -4.7150 hc        1 MOL      0.119855
     53 N5         -5.8800    2.6560   -1.7600 n         1 MOL     -0.055350
     54 C17        -7.2270    2.1110   -1.5410 c3        1 MOL     -0.106596
     55 C18        -7.4550    0.7080   -2.2020 c         1 MOL      0.596678
     56 O9         -8.1880    0.6170   -3.1610 o         1 MOL     -0.471489
     57 H25        -5.1770    2.4160   -1.0710 hn        1 MOL      0.077699
     58 H26        -8.0580    2.7210   -1.8930 h1        1 MOL      0.097011
     59 H27        -7.3540    2.1150   -0.4560 h1        1 MOL      0.097011
     60 N6         -6.8020   -0.3380   -1.6700 n         1 MOL     -0.308479
     61 C19        -6.9860   -1.7700   -1.9640 c3        1 MOL     -0.041679
     62 C20        -7.1670   -2.7100   -0.7520 c         1 MOL      0.503888
     63 O10        -7.4220   -3.9240   -0.9050 o         1 MOL     -0.498930
     64 C21        -5.9020   -2.2760   -2.8870 c3        1 MOL     -0.108690
     65 C22        -4.4770   -1.9430   -2.4490 c         1 MOL      0.757445
     66 O11        -4.0120   -2.2620   -1.3030 o         1 MOL     -0.682452
     67 O12        -3.7000   -1.3560   -3.2010 o         1 MOL     -0.682452
     68 H28        -6.1610   -0.0950   -0.9360 hn        1 MOL      0.025978
     69 H29        -7.9240   -1.8590   -2.5100 h1        1 MOL      0.116307
     70 H30        -5.9240   -1.8630   -3.8910 hc        1 MOL      0.070609
     71 H31        -5.9320   -3.3620   -2.9770 hc        1 MOL      0.070609
     72 N7         -6.8130   -2.3000    0.4870 n         1 MOL     -0.258335
     73 C23        -6.7100   -3.1800    1.6670 c3        1 MOL     -0.228921
     74 C24        -5.3650   -3.8460    1.9690 c         1 MOL      0.506379
     75 O13        -5.1940   -4.7480    2.7980 o         1 MOL     -0.519599
     76 H32        -6.3840   -1.3860    0.5900 hn        1 MOL      0.249559
     77 H33        -7.5350   -3.8890    1.5940 h1        1 MOL      0.140718
     78 H34        -6.8700   -2.6510    2.6010 h1        1 MOL      0.140718
     79 N8         -4.3090   -3.5320    1.1500 n         1 MOL     -0.045909
     80 C25        -2.9770   -4.2150    1.1850 c3        1 MOL     -0.623273
     81 C26        -1.8020   -3.2710    1.2550 c         1 MOL      0.787198
     82 O14        -1.7620   -2.2690    0.4990 o         1 MOL     -0.752443
     83 C27        -2.7880   -5.2790    0.0610 c3        1 MOL      0.609120
     84 C28        -3.8340   -6.3430    0.1270 c3        1 MOL     -0.665745
     85 O15        -2.7930   -4.7830   -1.2520 oh        1 MOL     -0.666897
     86 H35        -4.5180   -2.9220    0.3580 hn        1 MOL      0.107662
     87 H36        -3.0200   -4.8000    2.1100 h1        1 MOL      0.189898
     88 H37        -1.8150   -5.7650    0.1110 h1        1 MOL      0.018597
     89 H38        -3.4770   -4.1150   -1.2910 ho        1 MOL      0.438896
     90 H39        -4.8140   -5.8600    0.1010 hc        1 MOL      0.179985
     91 H40        -3.6850   -7.0730   -0.6740 hc        1 MOL      0.179985
     92 H41        -3.7880   -6.8370    1.0900 hc        1 MOL      0.179985
     93 N9         -0.7080   -3.6160    1.9300 n         1 MOL     -0.564209
     94 C29         0.3660   -2.6720    2.1770 c3        1 MOL      0.126204
     95 C30         1.6210   -3.2100    1.4820 c         1 MOL      0.439071
     96 O16         2.1070   -4.3010    1.8800 o         1 MOL     -0.538638
     97 C31         0.6350   -2.5320    3.6910 c3        1 MOL     -0.050401
     98 C32        -0.4460   -1.6100    4.2570 c3        1 MOL     -0.042438
     99 C33         2.0180   -1.9280    4.1170 c3        1 MOL     -0.149770
    100 C34        -0.3010   -1.4620    5.8220 c3        1 MOL     -0.224273
    101 H42        -0.7080   -4.4500    2.5100 hn        1 MOL      0.309095
    102 H43         0.0660   -1.6930    1.8000 h1        1 MOL      0.173722
    103 H44         0.5760   -3.5310    4.1170 hc        1 MOL      0.063762
    104 H45        -1.4560   -1.9010    3.9900 hc        1 MOL      0.037663
    105 H46        -0.3640   -0.5960    3.8690 hc        1 MOL      0.037663
    106 H47         2.0980   -0.9520    3.6640 hc        1 MOL      0.047201
    107 H48         2.1620   -1.8750    5.1950 hc        1 MOL      0.047201
    108 H49         2.7530   -2.5830    3.6410 hc        1 MOL      0.047201
    109 H50        -1.2500   -1.1050    6.2250 hc        1 MOL      0.059540
    110 H51        -0.0290   -2.4170    6.2710 hc        1 MOL      0.059540
    111 H52         0.4360   -0.7510    6.2000 hc        1 MOL      0.059540
    112 N10         2.1830   -2.4510    0.5640 n         1 MOL     -0.192140
    113 C35         3.4490   -2.7820   -0.1690 c3        1 MOL     -0.097959
    114 C36         4.7940   -2.3110    0.4270 c         1 MOL      0.482889
    115 O17         4.7930   -1.4930    1.3670 o         1 MOL     -0.397145
    116 C37         3.3170   -2.2000   -1.6480 c3        1 MOL      0.368003
    117 C38         2.2040   -2.8310   -2.4080 c3        1 MOL     -0.249106
    118 O18         3.2570   -0.7370   -1.7610 oh        1 MOL     -0.606576
    119 H53         1.7050   -1.6050    0.2950 hn        1 MOL      0.231025
    120 H54         3.5050   -3.8450   -0.3810 h1        1 MOL      0.093901
    121 H55         4.2040   -2.5090   -2.2030 h1        1 MOL     -0.000204
    122 H56         2.3320   -0.5830   -1.5540 ho        1 MOL      0.323307
    123 H57         2.4790   -3.8900   -2.4770 hc        1 MOL      0.058783
    124 H58         1.2360   -2.7210   -1.9360 hc        1 MOL      0.058783
    125 H59         2.2080   -2.4860   -3.4480 hc        1 MOL      0.058783
    126 N11         5.8970   -2.8440   -0.0790 n         1 MOL     -0.519131
    127 C39         7.1900   -2.2270    0.1660 c3        1 MOL     -0.035084
    128 C40         7.2070   -0.7480   -0.2060 c         1 MOL      0.347463
    129 O19         8.0520    0.0100    0.3280 o         1 MOL     -0.551344
    130 C41         8.2150   -2.9790   -0.7800 c3        1 MOL      0.403343
    131 C42         8.5480   -4.3340   -0.1650 c3        1 MOL     -0.116338
    132 O20         7.7410   -3.0240   -2.1420 oh        1 MOL     -0.487860
    133 H60         5.8430   -3.4330   -0.8890 hn        1 MOL      0.275636
    134 H61         7.6180   -2.3210    1.1680 h1        1 MOL      0.120054
    135 H62         9.1570   -2.4290   -0.7500 h1        1 MOL     -0.095293
    136 H63         8.4660   -3.3060   -2.7090 ho        1 MOL      0.088659
    137 H64         9.4370   -4.7610   -0.6400 hc        1 MOL      0.030821
    138 H65         8.7750   -4.2600    0.9010 hc        1 MOL      0.030821
    139 H66         7.8280   -5.1520   -0.2780 hc        1 MOL      0.030821
    140 N12         6.2700   -0.1870   -1.0560 n         1 MOL      0.247972
    141 C43         6.2270    1.2120   -1.4210 c3        1 MOL      0.043588
    142 C44         5.3230    2.0230   -0.4680 c         1 MOL      0.377778
    143 O21         5.1360    3.2080   -0.7250 o         1 MOL     -0.535999
    144 C45         6.0890    1.5030   -2.9350 c3        1 MOL     -0.055839
    145 C46         7.4950    1.3780   -3.6360 c3        1 MOL     -0.024153
    146 C47         7.9990   -0.0130   -3.8110 c3        1 MOL      0.009047
    147 C48         9.0670   -0.0090   -4.9540 c3        1 MOL      0.011502
    148 N13         9.8890   -1.2050   -5.0010 n4        1 MOL      0.284972
    149 H67         5.6170   -0.8400   -1.4540 hn        1 MOL      0.011316
    150 H68         7.2180    1.5740   -1.1410 h1        1 MOL      0.051068
    151 H69         5.8080    2.5510   -3.0840 hc        1 MOL      0.044386
    152 H70         5.3410    0.8810   -3.4410 hc        1 MOL      0.044386
    153 H71         8.2590    1.9170   -3.0760 hc        1 MOL      0.000458
    154 H72         7.4180    1.8820   -4.6050 hc        1 MOL      0.000458
    155 H73         7.2220   -0.7420   -4.0490 hc        1 MOL     -0.012084
    156 H74         8.4190   -0.2910   -2.8440 hc        1 MOL     -0.012084
    157 H75         9.7820    0.7550   -4.6650 hx        1 MOL      0.028539
    158 H76         8.6490    0.2930   -5.9220 hx        1 MOL      0.028539
    159 H77         9.4060   -2.0740   -5.1780 hn        1 MOL     -0.082955
    160 H78        10.5960   -1.0660   -5.7150 hn        1 MOL     -0.082955
    161 H79        10.3980   -1.3820   -4.1490 hn        1 MOL     -0.082955
    162 N14         4.7930    1.3410    0.5810 n         1 MOL     -0.267448
    163 C49         3.8570    1.9050    1.5480 c3        1 MOL      0.061804
    164 C50         4.3390    1.8520    2.9810 c         1 MOL      0.367532
    165 O22         4.3350    2.8220    3.7480 o         1 MOL     -0.543456
    166 C51         2.5770    1.1600    1.3080 c3        1 MOL     -0.033408
    167 C52         1.8300    1.6020    0.0550 c3        1 MOL     -0.127160
    168 C53         0.5630    0.7930   -0.2540 c         1 MOL      0.580345
    169 O23         0.7230   -0.4180   -0.6440 o         1 MOL     -0.632165
    170 O24        -0.6000    1.1860   -0.0400 o         1 MOL     -0.632165
    171 H80         5.0310    0.3670    0.7180 hn        1 MOL     -0.000780
    172 H81         3.7120    2.9720    1.3380 h1        1 MOL      0.084251
    173 H82         1.9500    1.2260    2.2000 hc        1 MOL      0.034744
    174 H83         2.7500    0.0890    1.2130 hc        1 MOL      0.034744
    175 H84         2.6370    1.5220   -0.6760 hc        1 MOL      0.048710
    176 H85         1.5420    2.6510    0.1490 hc        1 MOL      0.048710
    177 N15         4.7370    0.6260    3.3920 n         1 MOL     -0.071813
    178 C54         5.1010    0.2340    4.7440 c3        1 MOL     -0.281150
    179 H86         4.7110   -0.7640    4.9490 h1        1 MOL      0.116360
    180 H87         6.1860    0.2260    4.8410 h1        1 MOL      0.116360
    181 H88         4.6770    0.9420    5.4550 h1        1 MOL      0.116360
    182 H89         4.7800   -0.0560    2.6530 hn        1 MOL      0.147380
    183 Ca1        -2.0590   -0.4580   -1.3890 Ca        1 MOL      1.698789
    184 O25        -1.2490   -2.9360   -2.3160 oh        1 MOL     -0.795698
    185 H90        -1.7860   -3.5000   -1.7670 ho        1 MOL      0.398715
    186 H91        -1.0490   -3.4650   -3.0850 ho        1 MOL      0.398715
    187 O26        -0.8660   -0.2800   -4.0010 oh        1 MOL     -0.795698
    188 H92        -0.8970   -0.7850   -4.8230 ho        1 MOL      0.398715
    189 H93        -1.3260    0.5380   -4.2080 ho        1 MOL      0.398715
@<TRIPOS>BOND
     1    1    2 1   
     2    1    4 1   
     3    1    5 1   
     4    1    6 1   
     5    2    3 2   
     6    2    7 1   
     7    7    8 1   
     8    7   15 1   
     9    8    9 1   
    10    8   11 1   
    11    8   16 1   
    12    9   10 2   
    13    9   19 1   
    14   11   12 1   
    15   11   17 1   
    16   11   18 1   
    17   12   13 1   
    18   12   14 1   
    19   19   20 1   
    20   19   28 1   
    21   20   21 1   
    22   20   23 1   
    23   20   29 1   
    24   21   22 2   
    25   21   41 1   
    26   23   24 1   
    27   23   30 1   
    28   23   31 1   
    29   24   25 1   
    30   24   32 1   
    31   24   33 1   
    32   25   26 1   
    33   25   34 1   
    34   25   35 1   
    35   26   27 1   
    36   26   36 1   
    37   26   37 1   
    38   27   38 1   
    39   27   39 1   
    40   27   40 1   
    41   41   42 1   
    42   41   49 1   
    43   42   43 1   
    44   42   45 1   
    45   42   50 1   
    46   43   44 2   
    47   43   53 1   
    48   45   46 1   
    49   45   51 1   
    50   45   52 1   
    51   46   47 1   
    52   46   48 1   
    53   53   54 1   
    54   53   57 1   
    55   54   55 1   
    56   54   58 1   
    57   54   59 1   
    58   55   56 2   
    59   55   60 1   
    60   60   61 1   
    61   60   68 1   
    62   61   62 1   
    63   61   64 1   
    64   61   69 1   
    65   62   63 2   
    66   62   72 1   
    67   64   65 1   
    68   64   70 1   
    69   64   71 1   
    70   65   66 1   
    71   65   67 1   
    72   72   73 1   
    73   72   76 1   
    74   73   74 1   
    75   73   77 1   
    76   73   78 1   
    77   74   75 2   
    78   74   79 1   
    79   79   80 1   
    80   79   86 1   
    81   80   81 1   
    82   80   83 1   
    83   80   87 1   
    84   81   82 2   
    85   81   93 1   
    86   83   84 1   
    87   83   85 1   
    88   83   88 1   
    89   84   90 1   
    90   84   91 1   
    91   84   92 1   
    92   85   89 1   
    93   93   94 1   
    94   93  101 1   
    95   94   95 1   
    96   94   97 1   
    97   94  102 1   
    98   95   96 2   
    99   95  112 1   
   100   97   98 1   
   101   97   99 1   
   102   97  103 1   
   103   98  100 1   
   104   98  104 1   
   105   98  105 1   
   106   99  106 1   
   107   99  107 1   
   108   99  108 1   
   109  100  109 1   
   110  100  110 1   
   111  100  111 1   
   112  112  113 1   
   113  112  119 1   
   114  113  114 1   
   115  113  116 1   
   116  113  120 1   
   117  114  115 2   
   118  114  126 1   
   119  116  117 1   
   120  116  118 1   
   121  116  121 1   
   122  117  123 1   
   123  117  124 1   
   124  117  125 1   
   125  118  122 1   
   126  126  127 1   
   127  126  133 1   
   128  127  128 1   
   129  127  130 1   
   130  127  134 1   
   131  128  129 2   
   132  128  140 1   
   133  130  131 1   
   134  130  132 1   
   135  130  135 1   
   136  131  137 1   
   137  131  138 1   
   138  131  139 1   
   139  132  136 1   
   140  140  141 1   
   141  140  149 1   
   142  141  142 1   
   143  141  144 1   
   144  141  150 1   
   145  142  143 2   
   146  142  162 1   
   147  144  145 1   
   148  144  151 1   
   149  144  152 1   
   150  145  146 1   
   151  145  153 1   
   152  145  154 1   
   153  146  147 1   
   154  146  155 1   
   155  146  156 1   
   156  147  148 1   
   157  147  157 1   
   158  147  158 1   
   159  148  159 1   
   160  148  160 1   
   161  148  161 1   
   162  162  163 1   
   163  162  171 1   
   164  163  164 1   
   165  163  166 1   
   166  163  172 1   
   167  164  165 2   
   168  164  177 1   
   169  166  167 1   
   170  166  173 1   
   171  166  174 1   
   172  167  168 1   
   173  167  175 1   
   174  167  176 1   
   175  168  169 1   
   176  168  170 1   
   177  177  178 1   
   178  177  182 1   
   179  178  179 1   
   180  178  180 1   
   181  178  181 1   
   182  184  185 1   
   183  184  186 1   
   184  187  188 1   
   185  187  189 1   
@<TRIPOS>SUBSTRUCTURE
     1 MOL         1 TEMP              0 ****  ****    0 ROOT
