@<TRIPOS>MOLECULE
MOL
  175   173     1     0     0
SMALL
resp


@<TRIPOS>ATOM
      1 C1          0.4470    3.6420    5.3930 c3        1 MOL     -0.338890
      2 C2         -0.1180    3.6890    3.9960 c         1 MOL      0.720502
      3 O1          0.6000    3.8890    3.0190 o         1 MOL     -0.539880
      4 H1          1.5030    3.3770    5.3490 hc        1 MOL      0.082110
      5 H2          0.3370    4.6200    5.8630 hc        1 MOL      0.082110
      6 H3         -0.0900    2.8950    5.9790 hc        1 MOL      0.082110
      7 N1         -1.4730    3.5240    3.9060 n         1 MOL     -0.696195
      8 C3         -2.2030    3.4020    2.7030 c3        1 MOL      0.319104
      9 C4         -2.3170    4.6030    1.8220 c         1 MOL      0.485251
     10 O2         -2.7140    5.6720    2.3070 o         1 MOL     -0.611805
     11 C5         -3.5950    2.7540    3.0970 c3        1 MOL     -0.357550
     12 C6         -4.3230    2.0780    1.8910 c         1 MOL      0.828904
     13 O3         -5.4820    1.6670    2.0560 o         1 MOL     -0.696822
     14 O4         -3.6760    2.0370    0.7890 o         1 MOL     -0.696822
     15 H4         -2.0920    3.6200    4.6990 hn        1 MOL      0.325635
     16 H5         -1.5870    2.7660    2.0700 h1        1 MOL      0.093165
     17 H6         -4.2220    3.5190    3.5530 hc        1 MOL      0.057651
     18 H7         -3.3770    1.9820    3.8280 hc        1 MOL      0.057651
     19 N2         -2.0390    4.4110    0.5310 n         1 MOL     -0.287565
     20 C7         -2.0090    5.4690   -0.4330 c3        1 MOL      0.188890
     21 C8         -2.8470    5.0380   -1.6770 c         1 MOL      0.538124
     22 O5         -2.6900    5.5920   -2.7440 o         1 MOL     -0.563332
     23 C9         -0.5510    5.8010   -0.6330 c3        1 MOL     -0.125191
     24 H8         -1.6050    3.5440    0.2590 hn        1 MOL      0.201655
     25 H9         -2.4400    6.4150   -0.1300 h1        1 MOL      0.009372
     26 H10        -0.0170    5.9760    0.2910 hc        1 MOL      0.021597
     27 H11        -0.0520    4.9450   -1.0930 hc        1 MOL      0.021597
     28 H12        -0.4530    6.5980   -1.3720 hc        1 MOL      0.021597
     29 N3         -3.7170    4.0090   -1.5520 n         1 MOL     -0.435941
     30 C10        -4.5170    3.4460   -2.6410 c3        1 MOL      0.041935
     31 C11        -5.8230    2.6990   -2.2800 c         1 MOL      0.489642
     32 O6         -6.5740    2.4000   -3.1810 o         1 MOL     -0.555400
     33 C12        -3.6900    2.5480   -3.6010 c3        1 MOL     -0.063423
     34 C13        -3.0930    1.4280   -2.8220 c         1 MOL      0.639400
     35 O7         -3.7470    0.8000   -1.9500 o         1 MOL     -0.654966
     36 O8         -1.9450    1.1070   -3.0140 o         1 MOL     -0.654966
     37 H13        -3.8400    3.6100   -0.6300 hn        1 MOL      0.120166
     38 H14        -4.9290    4.2300   -3.2870 h1        1 MOL      0.054125
     39 H15        -2.8540    3.0490   -4.0970 hc        1 MOL      0.027839
     40 H16        -4.3640    2.2870   -4.4150 hc        1 MOL      0.027839
     41 N4         -6.0380    2.3490   -1.0240 n         1 MOL     -0.334459
     42 C14        -7.1920    1.6000   -0.6130 c3        1 MOL     -0.351817
     43 C15        -7.2610    0.1540   -0.9430 c         1 MOL      0.623513
     44 O9         -8.3300   -0.4020   -0.6890 o         1 MOL     -0.647057
     45 H17        -5.2590    2.3810   -0.3920 hn        1 MOL      0.301970
     46 H18        -8.0350    2.1140   -1.0760 h1        1 MOL      0.157317
     47 H19        -7.3430    1.6450    0.4610 h1        1 MOL      0.157317
     48 N5         -6.1800   -0.4740   -1.4120 n         1 MOL     -0.256652
     49 C16        -6.1960   -1.8570   -2.0170 c3        1 MOL     -0.085137
     50 C17        -6.1540   -3.0100   -1.0010 c         1 MOL      0.451688
     51 O10        -5.7750   -4.1180   -1.4120 o         1 MOL     -0.511605
     52 C18        -5.1190   -1.8830   -3.0810 c3        1 MOL     -0.012714
     53 C19        -3.6300   -1.9720   -2.5570 c         1 MOL      0.464880
     54 N6         -2.6610   -1.8240   -3.4570 n         1 MOL     -0.638848
     55 O11        -3.4120   -2.1000   -1.3890 o         1 MOL     -0.371406
     56 H20        -5.2690   -0.0390   -1.3620 hn        1 MOL      0.208820
     57 H21        -7.1600   -1.9970   -2.5150 h1        1 MOL      0.109724
     58 H22        -5.2240   -0.9900   -3.6970 hc        1 MOL      0.017684
     59 H23        -5.2290   -2.7130   -3.7860 hc        1 MOL      0.017684
     60 H24        -2.9150   -1.8100   -4.4320 hn        1 MOL      0.328326
     61 H25        -1.7140   -1.6000   -3.1900 hn        1 MOL      0.328326
     62 N7         -6.4090   -2.8100    0.3230 n         1 MOL     -0.283678
     63 C20        -6.2480   -3.7480    1.4570 c3        1 MOL     -0.338034
     64 C21        -4.9030   -4.4140    1.6530 c         1 MOL      0.565854
     65 O12        -4.7680   -5.2100    2.5660 o         1 MOL     -0.591609
     66 H26        -6.6540   -1.8800    0.6260 hn        1 MOL      0.283506
     67 H27        -6.9220   -4.5850    1.3280 h1        1 MOL      0.147849
     68 H28        -6.4370   -3.1570    2.3590 h1        1 MOL      0.147849
     69 N8         -3.8380   -4.0290    0.9190 n         1 MOL     -0.002347
     70 C22        -2.4880   -4.5780    1.0090 c3        1 MOL     -0.304990
     71 C23        -1.4220   -3.5200    1.3130 c         1 MOL      0.542939
     72 O13        -1.6090   -2.3500    1.0680 o         1 MOL     -0.633170
     73 C24        -2.1620   -5.5540   -0.1240 c3        1 MOL      0.536267
     74 C25        -3.2080   -6.6330   -0.3850 c3        1 MOL     -0.421251
     75 O14        -1.9930   -4.6420   -1.1770 oh        1 MOL     -0.607391
     76 H29        -4.0130   -3.4170    0.1320 hn        1 MOL      0.028911
     77 H30        -2.4260   -5.1230    1.9530 h1        1 MOL      0.051135
     78 H31        -1.1590   -5.9170    0.1180 h1        1 MOL     -0.034144
     79 H32        -2.6470   -3.9350   -1.1420 ho        1 MOL      0.345740
     80 H33        -3.6240   -7.0790    0.5090 hc        1 MOL      0.098028
     81 H34        -4.0000   -6.3530   -1.0710 hc        1 MOL      0.098028
     82 H35        -2.7500   -7.4970   -0.8780 hc        1 MOL      0.098028
     83 N9         -0.2770   -3.9030    1.8410 n         1 MOL     -0.272641
     84 C26         0.8770   -3.0610    1.9710 c3        1 MOL     -0.001842
     85 C27         1.5780   -3.1820    0.6370 c         1 MOL      0.520930
     86 O15         2.0270   -4.2830    0.2510 o         1 MOL     -0.606022
     87 C28         1.8920   -3.3280    3.1210 c3        1 MOL     -0.077134
     88 C29         1.1460   -3.5540    4.4770 c3        1 MOL     -0.014836
     89 C30         2.8870   -2.1540    3.1730 c3        1 MOL     -0.075893
     90 C31         0.4760   -2.3280    5.1630 c3        1 MOL     -0.143514
     91 H36        -0.2690   -4.8690    2.1390 hn        1 MOL      0.240700
     92 H37         0.5080   -2.0430    2.0890 h1        1 MOL      0.128224
     93 H38         2.4380   -4.2550    2.9470 hc        1 MOL      0.034191
     94 H39         1.7930   -3.9480    5.2670 hc        1 MOL      0.018725
     95 H40         0.3550   -4.2920    4.3480 hc        1 MOL      0.018725
     96 H41         2.3640   -1.2000    3.1390 hc        1 MOL      0.029596
     97 H42         3.4580   -2.1690    4.1010 hc        1 MOL      0.029596
     98 H43         3.5210   -2.2650    2.3030 hc        1 MOL      0.029596
     99 H44         1.1330   -1.5620    5.5860 hc        1 MOL      0.029544
    100 H45        -0.2170   -1.7330    4.5680 hc        1 MOL      0.029544
    101 H46        -0.0370   -2.7240    6.0440 hc        1 MOL      0.029544
    102 N10         1.7730   -2.0980   -0.0940 n         1 MOL     -0.217688
    103 C32         2.6270   -1.9870   -1.2780 c3        1 MOL      0.099932
    104 C33         4.0510   -1.5760   -0.8220 c         1 MOL      0.398127
    105 O16         4.2890   -1.0320    0.2420 o         1 MOL     -0.240388
    106 C34         1.9620   -0.9270   -2.2410 c3        1 MOL     -0.330299
    107 C35         0.5070   -1.2720   -2.6430 c         1 MOL      0.751297
    108 O17        -0.4500   -1.0780   -1.8840 o         1 MOL     -0.676348
    109 O18         0.3680   -1.7120   -3.8090 o         1 MOL     -0.676348
    110 H47         1.3720   -1.2420    0.2480 hn        1 MOL      0.097794
    111 H48         2.5950   -2.9300   -1.8310 h1        1 MOL      0.073134
    112 H49         2.5840   -0.7780   -3.1270 hc        1 MOL      0.104569
    113 H50         1.9860    0.0590   -1.7900 hc        1 MOL      0.104569
    114 N11         5.0030   -1.7500   -1.6670 n         1 MOL     -0.721200
    115 C36         6.3790   -1.3430   -1.3800 c3        1 MOL      0.483479
    116 C37         6.5360    0.1370   -0.9840 c         1 MOL      0.372591
    117 O19         7.2470    0.4190    0.0260 o         1 MOL     -0.512037
    118 C38         7.3850   -1.8290   -2.5130 c3        1 MOL     -0.307490
    119 C39         8.8270   -1.7010   -2.0910 ca        1 MOL      0.112495
    120 C40         9.1930   -2.1570   -0.8110 ca        1 MOL     -0.184152
    121 C41         9.7170   -0.9180   -2.8900 ca        1 MOL     -0.184152
    122 C42        10.5500   -1.9050   -0.4070 ca        1 MOL     -0.123508
    123 C43        11.0470   -0.7370   -2.4110 ca        1 MOL     -0.123508
    124 C44        11.4600   -1.2090   -1.1730 ca        1 MOL     -0.060473
    125 H51         4.8240   -2.2530   -2.5230 hn        1 MOL      0.348448
    126 H52         6.6240   -1.8550   -0.4380 h1        1 MOL      0.043723
    127 H53         7.2300   -1.2550   -3.4260 hc        1 MOL      0.091830
    128 H54         7.3520   -2.8940   -2.7610 hc        1 MOL      0.091830
    129 H55         8.5360   -2.7020   -0.1490 ha        1 MOL      0.128536
    130 H56         9.3470   -0.5200   -3.8200 ha        1 MOL      0.128536
    131 H57        10.8280   -2.4040    0.5110 ha        1 MOL      0.105539
    132 H58        11.7160   -0.1420   -3.0120 ha        1 MOL      0.105539
    133 H59        12.5290   -1.2360   -1.0110 ha        1 MOL      0.081094
    134 N12         5.8580    1.0650   -1.6560 n         1 MOL     -0.115601
    135 C45         5.9340    2.5270   -1.4050 c3        1 MOL     -0.033647
    136 C46         5.3940    2.9720   -0.0260 c         1 MOL      0.325428
    137 O20         5.6620    4.0540    0.4450 o         1 MOL     -0.494462
    138 C47         5.1340    3.1350   -2.5700 c3        1 MOL     -0.081177
    139 C48         5.4130    2.1600   -3.7220 c3        1 MOL      0.048944
    140 C49         5.2530    0.8500   -2.9150 c3        1 MOL      0.022897
    141 H60         6.9820    2.8100   -1.5150 h1        1 MOL      0.093076
    142 H61         4.0730    3.1280   -2.3480 hc        1 MOL      0.055329
    143 H62         5.5130    4.1210   -2.8570 hc        1 MOL      0.055329
    144 H63         4.7400    2.1960   -4.5760 hc        1 MOL      0.005633
    145 H64         6.4400    2.2390   -4.0890 hc        1 MOL      0.005633
    146 H65         4.2070    0.5940   -2.7360 h1        1 MOL      0.004726
    147 H66         5.7490    0.0270   -3.4260 h1        1 MOL      0.004726
    148 N13         4.6820    2.0080    0.6130 n         1 MOL     -0.032320
    149 C50         3.9950    2.1370    1.8680 c3        1 MOL      0.025385
    150 C51         4.7700    1.3240    2.9330 c         1 MOL      0.390152
    151 O21         4.9320    1.6930    4.1160 o         1 MOL     -0.540876
    152 C52         2.6320    1.5480    1.5980 c3        1 MOL      0.115412
    153 C53         1.9320    2.0960    0.3890 c3        1 MOL      0.080174
    154 C54         0.5100    1.5030    0.3410 c         1 MOL      0.369649
    155 O22         0.2950    0.3280    0.6390 o         1 MOL     -0.590158
    156 O23        -0.4620    2.1310   -0.1090 o         1 MOL     -0.590158
    157 H67         4.5940    1.0750    0.2390 hn        1 MOL     -0.061966
    158 H68         3.9090    3.1600    2.2360 h1        1 MOL      0.068005
    159 H69         2.0320    1.9060    2.4380 hc        1 MOL     -0.042081
    160 H70         2.6710    0.4580    1.6250 hc        1 MOL     -0.042081
    161 H71         2.4330    1.9250   -0.5650 hc        1 MOL      0.028596
    162 H72         1.8800    3.1780    0.4550 hc        1 MOL      0.028596
    163 N14         5.5100    0.2140    2.5420 n         1 MOL     -0.094855
    164 C55         6.3190   -0.6260    3.4440 c3        1 MOL     -0.124302
    165 H73         7.2360   -0.9240    2.9360 h1        1 MOL      0.060660
    166 H74         6.5690   -0.0600    4.3410 h1        1 MOL      0.060660
    167 H75         5.7520   -1.5150    3.7210 h1        1 MOL      0.060660
    168 H76         5.4050   -0.1530    1.6110 hn        1 MOL      0.042075
    169 Ca1        -2.0520    0.0460   -0.1820 Ca        1 MOL      1.702959
    170 O24        -4.5570   -0.8240    1.2920 oh        1 MOL     -0.812456
    171 H77        -4.6770   -1.1980    2.1630 ho        1 MOL      0.389273
    172 H78        -4.7930    0.0950    1.3820 ho        1 MOL      0.389273
    173 O25        -1.7920    0.4020    2.4940 oh        1 MOL     -0.812456
    174 H79        -0.8350    0.4990    2.5270 ho        1 MOL      0.389273
    175 H80        -2.0390    0.2110    3.4020 ho        1 MOL      0.389273
@<TRIPOS>BOND
     1    1    2 1   
     2    1    4 1   
     3    1    5 1   
     4    1    6 1   
     5    2    3 2   
     6    2    7 1   
     7    7    8 1   
     8    7   15 1   
     9    8    9 1   
    10    8   11 1   
    11    8   16 1   
    12    9   10 2   
    13    9   19 1   
    14   11   12 1   
    15   11   17 1   
    16   11   18 1   
    17   12   13 1   
    18   12   14 1   
    19   19   20 1   
    20   19   24 1   
    21   20   21 1   
    22   20   23 1   
    23   20   25 1   
    24   21   22 2   
    25   21   29 1   
    26   23   26 1   
    27   23   27 1   
    28   23   28 1   
    29   29   30 1   
    30   29   37 1   
    31   30   31 1   
    32   30   33 1   
    33   30   38 1   
    34   31   32 2   
    35   31   41 1   
    36   33   34 1   
    37   33   39 1   
    38   33   40 1   
    39   34   35 1   
    40   34   36 1   
    41   41   42 1   
    42   41   45 1   
    43   42   43 1   
    44   42   46 1   
    45   42   47 1   
    46   43   44 2   
    47   43   48 1   
    48   48   49 1   
    49   48   56 1   
    50   49   50 1   
    51   49   52 1   
    52   49   57 1   
    53   50   51 2   
    54   50   62 1   
    55   52   53 1   
    56   52   58 1   
    57   52   59 1   
    58   53   54 1   
    59   53   55 2   
    60   54   60 1   
    61   54   61 1   
    62   62   63 1   
    63   62   66 1   
    64   63   64 1   
    65   63   67 1   
    66   63   68 1   
    67   64   65 2   
    68   64   69 1   
    69   69   70 1   
    70   69   76 1   
    71   70   71 1   
    72   70   73 1   
    73   70   77 1   
    74   71   72 2   
    75   71   83 1   
    76   73   74 1   
    77   73   75 1   
    78   73   78 1   
    79   74   80 1   
    80   74   81 1   
    81   74   82 1   
    82   75   79 1   
    83   83   84 1   
    84   83   91 1   
    85   84   85 1   
    86   84   87 1   
    87   84   92 1   
    88   85   86 2   
    89   85  102 1   
    90   87   88 1   
    91   87   89 1   
    92   87   93 1   
    93   88   90 1   
    94   88   94 1   
    95   88   95 1   
    96   89   96 1   
    97   89   97 1   
    98   89   98 1   
    99   90   99 1   
   100   90  100 1   
   101   90  101 1   
   102  102  103 1   
   103  102  110 1   
   104  103  104 1   
   105  103  106 1   
   106  103  111 1   
   107  104  105 2   
   108  104  114 1   
   109  106  107 1   
   110  106  112 1   
   111  106  113 1   
   112  107  108 1   
   113  107  109 1   
   114  114  115 1   
   115  114  125 1   
   116  115  116 1   
   117  115  118 1   
   118  115  126 1   
   119  116  117 2   
   120  116  134 1   
   121  118  119 1   
   122  118  127 1   
   123  118  128 1   
   124  119  120 ar  
   125  119  121 ar  
   126  120  122 ar  
   127  120  129 1   
   128  121  123 ar  
   129  121  130 1   
   130  122  124 ar  
   131  122  131 1   
   132  123  124 ar  
   133  123  132 1   
   134  124  133 1   
   135  134  135 1   
   136  134  140 1   
   137  135  136 1   
   138  135  138 1   
   139  135  141 1   
   140  136  137 2   
   141  136  148 1   
   142  138  139 1   
   143  138  142 1   
   144  138  143 1   
   145  139  140 1   
   146  139  144 1   
   147  139  145 1   
   148  140  146 1   
   149  140  147 1   
   150  148  149 1   
   151  148  157 1   
   152  149  150 1   
   153  149  152 1   
   154  149  158 1   
   155  150  151 2   
   156  150  163 1   
   157  152  153 1   
   158  152  159 1   
   159  152  160 1   
   160  153  154 1   
   161  153  161 1   
   162  153  162 1   
   163  154  155 1   
   164  154  156 1   
   165  163  164 1   
   166  163  168 1   
   167  164  165 1   
   168  164  166 1   
   169  164  167 1   
   170  170  171 1   
   171  170  172 1   
   172  173  174 1   
   173  173  175 1   
@<TRIPOS>SUBSTRUCTURE
     1 MOL         1 TEMP              0 ****  ****    0 ROOT
