@<TRIPOS>MOLECULE
MOL
  186   183     1     0     0
SMALL
resp


@<TRIPOS>ATOM
      1 C1         -0.0860   -1.9930    6.3270 c3        1 MOL     -0.312087
      2 C2          0.2980   -1.9650    4.8630 c         1 MOL      0.808258
      3 O1         -0.4180   -2.4860    4.0180 o         1 MOL     -0.649846
      4 H1         -0.4190   -2.9950    6.5960 hc        1 MOL      0.070208
      5 H2          0.7780   -1.7230    6.9350 hc        1 MOL      0.070208
      6 H3         -0.8940   -1.2830    6.5040 hc        1 MOL      0.070208
      7 N1          1.3860   -1.3420    4.4840 n         1 MOL     -0.644085
      8 C3          1.9890   -1.2470    3.1080 c3        1 MOL      0.045818
      9 C4          2.5240   -2.6620    2.7600 c         1 MOL      0.577649
     10 O2          3.4310   -3.2160    3.4220 o         1 MOL     -0.576359
     11 C5          3.2180   -0.3130    3.1750 c3        1 MOL     -0.170904
     12 C6          4.1980   -0.3360    1.9480 c         1 MOL      0.544946
     13 O3          5.4280   -0.1640    2.2160 o         1 MOL     -0.588693
     14 O4          3.7830   -0.4950    0.7390 o         1 MOL     -0.588693
     15 H4          1.9910   -0.8990    5.1520 hn        1 MOL      0.331478
     16 H5          1.2410   -0.8440    2.4260 h1        1 MOL      0.074269
     17 H6          3.8120   -0.5130    4.0650 hc        1 MOL      0.036424
     18 H7          2.7950    0.6800    3.3080 hc        1 MOL      0.036424
     19 N2          2.0930   -3.3650    1.7320 n         1 MOL     -0.361194
     20 C7          2.4010   -4.7980    1.5210 c3        1 MOL     -0.139348
     21 C8          3.6120   -4.9470    0.6080 c         1 MOL      0.585172
     22 O5          4.5420   -5.7270    0.8370 o         1 MOL     -0.591493
     23 C9          1.1680   -5.5450    1.0040 c3        1 MOL      0.229268
     24 C10         0.0100   -5.6230    1.9930 c3        1 MOL      0.309048
     25 C11         1.6300   -7.0050    0.8220 c3        1 MOL     -0.290205
     26 C12        -1.2680   -6.4060    1.7170 c3        1 MOL     -0.328089
     27 H8          1.4410   -2.8920    1.1170 hn        1 MOL      0.234523
     28 H9          2.6370   -5.2140    2.5060 h1        1 MOL      0.092415
     29 H10         0.7550   -5.3050    0.0280 hc        1 MOL     -0.008207
     30 H11        -0.3630   -4.6290    2.2290 hc        1 MOL     -0.063753
     31 H12         0.3950   -6.0380    2.9290 hc        1 MOL     -0.063753
     32 H13         0.7630   -7.6310    0.6180 hc        1 MOL      0.045896
     33 H14         2.3570   -7.0200   -0.0050 hc        1 MOL      0.045896
     34 H15         2.1630   -7.4030    1.6840 hc        1 MOL      0.045896
     35 H16        -1.0630   -7.4720    1.6130 hc        1 MOL      0.064382
     36 H17        -1.9170   -6.2350    2.5760 hc        1 MOL      0.064382
     37 H18        -1.8490   -5.9890    0.8950 hc        1 MOL      0.064382
     38 N3          3.6170   -4.1070   -0.4330 n         1 MOL     -0.315608
     39 C13         4.5470   -4.2050   -1.5790 c3        1 MOL     -0.044432
     40 C14         5.8140   -3.2900   -1.4760 c         1 MOL      0.314968
     41 O6          6.5690   -3.2170   -2.4970 o         1 MOL     -0.470220
     42 C15         3.8070   -4.1990   -2.9810 c3        1 MOL     -0.314096
     43 C16         3.2300   -2.8010   -3.2720 c         1 MOL      0.823946
     44 O7          3.4490   -1.7560   -2.6410 o         1 MOL     -0.708750
     45 O8          2.3950   -2.7400   -4.1970 o         1 MOL     -0.708750
     46 H19         2.9330   -3.3800   -0.5350 hn        1 MOL      0.224170
     47 H20         4.9880   -5.1950   -1.4440 h1        1 MOL      0.111440
     48 H21         3.0310   -4.9710   -3.0410 hc        1 MOL      0.092286
     49 H22         4.5170   -4.5010   -3.7540 hc        1 MOL      0.092286
     50 N4          5.9660   -2.5700   -0.3690 n         1 MOL     -0.079426
     51 C17         7.2600   -2.1660    0.1080 c3        1 MOL     -0.447916
     52 C18         7.7470   -0.9850   -0.6850 c         1 MOL      0.522536
     53 O9          8.8100   -1.0940   -1.2950 o         1 MOL     -0.564413
     54 H23         5.2360   -2.6080    0.3320 hn        1 MOL      0.290432
     55 H24         7.9180   -2.9830   -0.1750 h1        1 MOL      0.170913
     56 H25         7.1830   -1.8630    1.1500 h1        1 MOL      0.170913
     57 N5          6.9090    0.0620   -0.7940 n         1 MOL     -0.091935
     58 C19         7.2530    1.4390   -1.3390 c3        1 MOL     -0.021175
     59 C20         7.1150    2.6370   -0.3840 c         1 MOL      0.493356
     60 O10         7.4070    3.7830   -0.7200 o         1 MOL     -0.559322
     61 C21         6.4400    1.7490   -2.5530 c3        1 MOL     -0.078896
     62 C22         4.9470    1.7330   -2.3660 c         1 MOL      0.762651
     63 O11         4.1630    1.4840   -3.3130 o         1 MOL     -0.742061
     64 O12         4.4990    1.8060   -1.2220 o         1 MOL     -0.742061
     65 H26         6.0060   -0.0290   -0.3420 hn        1 MOL     -0.067749
     66 H27         8.2930    1.4620   -1.6650 h1        1 MOL      0.070455
     67 H28         6.8460    1.1220   -3.3380 hc        1 MOL      0.027376
     68 H29         6.6580    2.7580   -2.9050 hc        1 MOL      0.027376
     69 N6          6.8990    2.2770    0.8320 n         1 MOL     -0.373224
     70 C23         6.6210    3.1500    1.9850 c3        1 MOL      0.136046
     71 C24         5.2730    3.9250    1.9180 c         1 MOL      0.460522
     72 O13         5.1910    4.9990    2.5470 o         1 MOL     -0.603168
     73 H30         6.6080    1.3200    1.0230 hn        1 MOL      0.235606
     74 H31         7.4800    3.7970    2.1550 h1        1 MOL      0.017587
     75 H32         6.5900    2.4570    2.8230 h1        1 MOL      0.017587
     76 N7          4.2900    3.4310    1.1990 n         1 MOL     -0.340382
     77 C25         2.9980    4.1170    0.9470 c3        1 MOL      0.025076
     78 C26         1.7900    3.1410    0.9560 c         1 MOL      0.445985
     79 O14         1.8980    2.1290    0.2340 o         1 MOL     -0.613521
     80 C27         2.9910    5.0030   -0.3010 c3        1 MOL     -0.374587
     81 C28         3.9020    6.2190   -0.1160 c3        1 MOL      0.080704
     82 C29         3.9060    7.2850   -1.2250 c         1 MOL      0.533036
     83 N8          4.5160    8.3910   -0.9390 n         1 MOL     -0.714153
     84 O15         3.3790    7.1170   -2.3290 o         1 MOL     -0.558557
     85 H33         4.3750    2.5560    0.7070 hn        1 MOL      0.347757
     86 H34         2.7600    4.7430    1.8150 h1        1 MOL      0.046845
     87 H35         2.0110    5.3250   -0.6430 hc        1 MOL      0.148095
     88 H36         3.3750    4.3830   -1.1130 hc        1 MOL      0.148095
     89 H37         4.9350    5.9220    0.0700 hc        1 MOL      0.033051
     90 H38         3.5440    6.7140    0.7890 hc        1 MOL      0.033051
     91 H39         4.9810    8.5830   -0.0670 hn        1 MOL      0.332058
     92 H40         4.2090    9.0360   -1.6480 hn        1 MOL      0.332058
     93 N9          0.7280    3.4860    1.5580 n         1 MOL     -0.246627
     94 C30        -0.4620    2.6520    1.7020 c3        1 MOL      0.011293
     95 C31        -1.4320    3.2320    0.7450 c         1 MOL      0.406374
     96 O16        -1.8650    4.3780    0.8170 o         1 MOL     -0.590918
     97 C32        -1.0180    2.6940    3.1000 c3        1 MOL      0.262135
     98 C33        -2.4380    2.0700    3.4390 c3        1 MOL     -0.246947
     99 C34        -0.1200    2.0180    4.1060 c3        1 MOL     -0.246947
    100 H41         0.7290    4.3490    2.0720 hn        1 MOL      0.219681
    101 H42        -0.2920    1.6380    1.3540 h1        1 MOL      0.201519
    102 H43        -1.1320    3.7270    3.4090 hc        1 MOL     -0.030058
    103 H44        -2.7990    2.4990    4.3800 hc        1 MOL      0.042180
    104 H45        -3.1200    2.3460    2.6400 hc        1 MOL      0.042180
    105 H46        -2.3380    0.9880    3.4080 hc        1 MOL      0.042180
    106 H47        -0.4370    2.2840    5.1230 hc        1 MOL      0.042180
    107 H48        -0.0860    0.9500    3.9100 hc        1 MOL      0.042180
    108 H49         0.8620    2.4650    3.9810 hc        1 MOL      0.042180
    109 N10        -1.8420    2.3540   -0.1880 n         1 MOL     -0.171179
    110 C35        -2.8570    2.6700   -1.1940 c3        1 MOL      0.255566
    111 C36        -4.1650    2.0650   -0.6770 c         1 MOL      0.202361
    112 O17        -4.1550    1.2170    0.2770 o         1 MOL     -0.187309
    113 C37        -2.5180    2.1730   -2.5890 c3        1 MOL     -0.590846
    114 C38        -2.9890    0.8310   -3.0610 c         1 MOL      0.756426
    115 N11        -2.1520   -0.1270   -2.7500 n         1 MOL     -0.777286
    116 O18        -4.0550    0.6470   -3.6020 o         1 MOL     -0.616541
    117 H50        -1.6070    1.3800   -0.0870 hn        1 MOL      0.097418
    118 H51        -2.9790    3.7510   -1.3040 h1        1 MOL      0.055755
    119 H52        -1.4260    2.2040   -2.6340 hc        1 MOL      0.172873
    120 H53        -3.0040    2.8590   -3.2810 hc        1 MOL      0.172873
    121 H54        -1.3560    0.1620   -2.2040 hn        1 MOL      0.392801
    122 H55        -2.1370   -1.0710   -3.1250 hn        1 MOL      0.392801
    123 N12        -5.3260    2.4440   -1.2580 n         1 MOL     -0.558369
    124 C39        -6.5830    1.9950   -0.7030 c3        1 MOL      0.314062
    125 C40        -6.8360    0.4780   -0.7740 c         1 MOL      0.561137
    126 O19        -7.5840   -0.1010    0.0140 o         1 MOL     -0.511817
    127 C41        -7.7230    2.8430   -1.3670 c3        1 MOL     -0.220913
    128 C42        -9.0640    2.5620   -0.7310 ca        1 MOL      0.105790
    129 C43        -9.2110    2.9930    0.5550 ca        1 MOL     -0.205750
    130 C44       -10.0620    1.9190   -1.4350 ca        1 MOL     -0.205750
    131 C45       -10.3770    2.7210    1.2490 ca        1 MOL     -0.215395
    132 C46       -11.2240    1.6340   -0.6970 ca        1 MOL     -0.215395
    133 C47       -11.4050    2.0230    0.6490 ca        1 MOL      0.282470
    134 O20       -12.5270    1.7360    1.3980 oh        1 MOL     -0.481516
    135 H56        -5.3160    3.1230   -2.0140 hn        1 MOL      0.321770
    136 H57        -6.5230    2.2520    0.3550 h1        1 MOL      0.035373
    137 H58        -7.8370    2.4810   -2.3890 hc        1 MOL      0.065177
    138 H59        -7.5410    3.9180   -1.3220 hc        1 MOL      0.065177
    139 H60        -8.3570    3.4700    1.0040 ha        1 MOL      0.147551
    140 H61       -10.0250    1.6490   -2.4840 ha        1 MOL      0.147551
    141 H62       -10.5240    2.9470    2.2940 ha        1 MOL      0.129254
    142 H63       -11.9980    1.0880   -1.2360 ha        1 MOL      0.129254
    143 H64       -13.0240    1.0740    0.9060 ho        1 MOL      0.347463
    144 N13        -6.1200   -0.2520   -1.6380 n         1 MOL     -0.479592
    145 C48        -6.1260   -1.7710   -1.6560 c3        1 MOL     -0.047705
    146 C49        -5.4640   -2.2650   -0.3640 c         1 MOL      0.331183
    147 O21        -6.0000   -3.1910    0.2310 o         1 MOL     -0.499112
    148 C50        -5.1700   -2.1350   -2.8070 c3        1 MOL      0.154333
    149 C51        -5.4380   -3.6320   -3.1830 c3        1 MOL     -0.336862
    150 C52        -4.3880   -4.1450   -4.1260 c         1 MOL      0.733514
    151 O22        -3.2240   -4.0810   -3.7230 o         1 MOL     -0.744669
    152 O23        -4.7160   -4.5060   -5.2930 o         1 MOL     -0.744669
    153 H65        -5.5690    0.1560   -2.3820 hn        1 MOL      0.241337
    154 H66        -7.0880   -2.2710   -1.7360 h1        1 MOL      0.105240
    155 H67        -4.1300   -1.9150   -2.5620 hc        1 MOL      0.020183
    156 H68        -5.5150   -1.6220   -3.6990 hc        1 MOL      0.020183
    157 H69        -6.4120   -3.8250   -3.6500 hc        1 MOL      0.042060
    158 H70        -5.4360   -4.1240   -2.2060 hc        1 MOL      0.042060
    159 N14        -4.3360   -1.6720    0.1060 n         1 MOL     -0.083405
    160 C53        -3.6480   -1.9130    1.3490 c3        1 MOL     -0.298379
    161 C54        -4.4930   -1.4160    2.5160 c         1 MOL      0.468768
    162 O24        -4.4960   -2.0940    3.5750 o         1 MOL     -0.576204
    163 C55        -2.2400   -1.1890    1.3090 c3        1 MOL      0.211669
    164 C56        -1.3830   -1.9800    0.3370 c3        1 MOL     -0.103989
    165 C57        -0.2010   -1.1500   -0.0890 c         1 MOL      0.872436
    166 O25         0.9810   -1.5330    0.0140 o         1 MOL     -0.885200
    167 O26        -0.3660   -0.0180   -0.5570 o         1 MOL     -0.885200
    168 H71        -4.0660   -0.8060   -0.3340 hn        1 MOL      0.294253
    169 H72        -3.4810   -2.9850    1.3820 h1        1 MOL      0.187025
    170 H73        -1.8420   -1.1680    2.3290 hc        1 MOL      0.021210
    171 H74        -2.2820   -0.1290    1.0560 hc        1 MOL      0.021210
    172 H75        -1.9100   -2.1450   -0.5990 hc        1 MOL     -0.000158
    173 H76        -1.0400   -2.9580    0.6840 hc        1 MOL     -0.000158
    174 N15        -5.2790   -0.3300    2.4390 n         1 MOL      0.056548
    175 C58        -6.0870    0.1640    3.5760 c3        1 MOL     -0.366964
    176 H77        -6.4480   -0.6830    4.1590 h1        1 MOL      0.120386
    177 H78        -5.4720    0.8040    4.2090 h1        1 MOL      0.120386
    178 H79        -6.9360    0.7330    3.1990 h1        1 MOL      0.120386
    179 H80        -5.2720    0.0930    1.5160 hn        1 MOL     -0.093673
    180 Ca1         2.3940    0.2100   -1.3260 Ca        1 MOL      1.809249
    181 O27         1.7020    2.2390   -3.1840 oh        1 MOL     -0.879697
    182 H81         1.2680    2.5180   -3.9840 ho        1 MOL      0.405498
    183 H82         2.6310    2.1530   -3.4370 ho        1 MOL      0.405498
    184 O28         0.8010   -0.8680   -3.5240 oh        1 MOL     -0.879697
    185 H83         1.4200   -1.4850   -3.9130 ho        1 MOL      0.405498
    186 H84        -0.0080   -1.3780   -3.4100 ho        1 MOL      0.405498
@<TRIPOS>BOND
     1    1    2 1   
     2    1    4 1   
     3    1    5 1   
     4    1    6 1   
     5    2    3 2   
     6    2    7 1   
     7    7    8 1   
     8    7   15 1   
     9    8    9 1   
    10    8   11 1   
    11    8   16 1   
    12    9   10 2   
    13    9   19 1   
    14   11   12 1   
    15   11   17 1   
    16   11   18 1   
    17   12   13 1   
    18   12   14 1   
    19   19   20 1   
    20   19   27 1   
    21   20   21 1   
    22   20   23 1   
    23   20   28 1   
    24   21   22 2   
    25   21   38 1   
    26   23   24 1   
    27   23   25 1   
    28   23   29 1   
    29   24   26 1   
    30   24   30 1   
    31   24   31 1   
    32   25   32 1   
    33   25   33 1   
    34   25   34 1   
    35   26   35 1   
    36   26   36 1   
    37   26   37 1   
    38   38   39 1   
    39   38   46 1   
    40   39   40 1   
    41   39   42 1   
    42   39   47 1   
    43   40   41 2   
    44   40   50 1   
    45   42   43 1   
    46   42   48 1   
    47   42   49 1   
    48   43   44 1   
    49   43   45 1   
    50   50   51 1   
    51   50   54 1   
    52   51   52 1   
    53   51   55 1   
    54   51   56 1   
    55   52   53 2   
    56   52   57 1   
    57   57   58 1   
    58   57   65 1   
    59   58   59 1   
    60   58   61 1   
    61   58   66 1   
    62   59   60 2   
    63   59   69 1   
    64   61   62 1   
    65   61   67 1   
    66   61   68 1   
    67   62   63 1   
    68   62   64 1   
    69   69   70 1   
    70   69   73 1   
    71   70   71 1   
    72   70   74 1   
    73   70   75 1   
    74   71   72 2   
    75   71   76 1   
    76   76   77 1   
    77   76   85 1   
    78   77   78 1   
    79   77   80 1   
    80   77   86 1   
    81   78   79 2   
    82   78   93 1   
    83   80   81 1   
    84   80   87 1   
    85   80   88 1   
    86   81   82 1   
    87   81   89 1   
    88   81   90 1   
    89   82   83 1   
    90   82   84 2   
    91   83   91 1   
    92   83   92 1   
    93   93   94 1   
    94   93  100 1   
    95   94   95 1   
    96   94   97 1   
    97   94  101 1   
    98   95   96 2   
    99   95  109 1   
   100   97   98 1   
   101   97   99 1   
   102   97  102 1   
   103   98  103 1   
   104   98  104 1   
   105   98  105 1   
   106   99  106 1   
   107   99  107 1   
   108   99  108 1   
   109  109  110 1   
   110  109  117 1   
   111  110  111 1   
   112  110  113 1   
   113  110  118 1   
   114  111  112 2   
   115  111  123 1   
   116  113  114 1   
   117  113  119 1   
   118  113  120 1   
   119  114  115 1   
   120  114  116 2   
   121  115  121 1   
   122  115  122 1   
   123  123  124 1   
   124  123  135 1   
   125  124  125 1   
   126  124  127 1   
   127  124  136 1   
   128  125  126 2   
   129  125  144 1   
   130  127  128 1   
   131  127  137 1   
   132  127  138 1   
   133  128  129 ar  
   134  128  130 ar  
   135  129  131 ar  
   136  129  139 1   
   137  130  132 ar  
   138  130  140 1   
   139  131  133 ar  
   140  131  141 1   
   141  132  133 ar  
   142  132  142 1   
   143  133  134 1   
   144  134  143 1   
   145  144  145 1   
   146  144  153 1   
   147  145  146 1   
   148  145  148 1   
   149  145  154 1   
   150  146  147 2   
   151  146  159 1   
   152  148  149 1   
   153  148  155 1   
   154  148  156 1   
   155  149  150 1   
   156  149  157 1   
   157  149  158 1   
   158  150  151 1   
   159  150  152 1   
   160  159  160 1   
   161  159  168 1   
   162  160  161 1   
   163  160  163 1   
   164  160  169 1   
   165  161  162 2   
   166  161  174 1   
   167  163  164 1   
   168  163  170 1   
   169  163  171 1   
   170  164  165 1   
   171  164  172 1   
   172  164  173 1   
   173  165  166 1   
   174  165  167 1   
   175  174  175 1   
   176  174  179 1   
   177  175  176 1   
   178  175  177 1   
   179  175  178 1   
   180  181  182 1   
   181  181  183 1   
   182  184  185 1   
   183  184  186 1   
@<TRIPOS>SUBSTRUCTURE
     1 MOL         1 TEMP              0 ****  ****    0 ROOT
