@<TRIPOS>MOLECULE
MOL
  179   176     1     0     0
SMALL
resp


@<TRIPOS>ATOM
      1 C1          2.5350    1.3760    6.0440 c3        1 MOL     -0.347045
      2 C2          2.0740    1.3560    4.5990 c         1 MOL      0.822584
      3 O1          2.8730    1.1960    3.7230 o         1 MOL     -0.623867
      4 H1          3.6250    1.3830    6.0770 hc        1 MOL      0.083919
      5 H2          2.1520    2.2690    6.5370 hc        1 MOL      0.083919
      6 H3          2.1620    0.4890    6.5580 hc        1 MOL      0.083919
      7 N1          0.7490    1.5620    4.3620 n         1 MOL     -0.625769
      8 C3          0.0960    1.8150    3.0010 c3        1 MOL     -0.152844
      9 C4          0.4330    3.1460    2.4320 c         1 MOL      0.662220
     10 O2         -0.1070    4.1490    2.8410 o         1 MOL     -0.531192
     11 C5         -1.4990    1.6240    3.1510 c3        1 MOL     -0.136308
     12 C6         -2.2970    1.7670    1.8490 c         1 MOL      0.747946
     13 O3         -1.6600    1.7430    0.7850 o         1 MOL     -0.727240
     14 O4         -3.5180    1.5830    1.8320 o         1 MOL     -0.727240
     15 H4          0.1260    1.6780    5.1400 hn        1 MOL      0.324794
     16 H5          0.5300    1.0160    2.4060 h1        1 MOL      0.132789
     17 H6         -1.8210    2.3530    3.8830 hc        1 MOL      0.068538
     18 H7         -1.8380    0.6760    3.5820 hc        1 MOL      0.068538
     19 N2          1.4010    3.1890    1.4920 n         1 MOL     -0.245131
     20 C7          1.9970    4.4160    0.9330 c3        1 MOL     -0.261710
     21 C8          1.0180    5.3490    0.2180 c         1 MOL      0.536737
     22 O5          1.1640    6.6060    0.2650 o         1 MOL     -0.574005
     23 C9          3.2910    4.1250    0.0620 c3        1 MOL      0.063148
     24 C10         4.4130    5.2290    0.0650 c3        1 MOL     -0.255006
     25 C11         5.6320    4.6960   -0.7530 c3        1 MOL      0.065089
     26 C12         6.5570    5.8720   -0.9070 c3        1 MOL      0.141843
     27 N3          7.4960    5.7710   -1.9920 n4        1 MOL     -0.364434
     28 H8          1.7850    2.3460    1.1000 hn        1 MOL      0.178827
     29 H9          2.2270    5.0270    1.8150 h1        1 MOL      0.128523
     30 H10         2.9920    3.8530   -0.9550 hc        1 MOL      0.076672
     31 H11         3.7740    3.2500    0.5030 hc        1 MOL      0.076672
     32 H12         4.7350    5.3560    1.0980 hc        1 MOL      0.093800
     33 H13         4.0700    6.1690   -0.3860 hc        1 MOL      0.093800
     34 H14         5.2610    4.4040   -1.7310 hc        1 MOL      0.020323
     35 H15         6.1760    3.9070   -0.2310 hc        1 MOL      0.020323
     36 H16         7.0670    6.0460    0.0430 hx        1 MOL      0.051144
     37 H17         6.0180    6.8020   -1.1000 hx        1 MOL      0.051144
     38 H18         7.1320    5.6500   -2.9250 hn        1 MOL      0.319725
     39 H19         8.0750    6.5980   -2.0470 hn        1 MOL      0.319725
     40 H20         8.1510    5.0170   -1.8240 hn        1 MOL      0.319725
     41 N4         -0.0560    4.8480   -0.3790 n         1 MOL     -0.299051
     42 C13        -0.9890    5.6410   -1.1580 c3        1 MOL     -0.001593
     43 C14        -2.4570    5.6370   -0.7160 c         1 MOL      0.393144
     44 O6         -3.2960    6.3710   -1.2620 o         1 MOL     -0.526475
     45 C15        -0.9020    5.2190   -2.6020 c3        1 MOL     -0.108411
     46 C16        -1.2840    3.7440   -2.8560 c         1 MOL      0.736957
     47 O7         -1.1270    3.3460   -4.0580 o         1 MOL     -0.728488
     48 O8         -1.7170    2.9590   -1.9750 o         1 MOL     -0.728488
     49 H21        -0.1570    3.8400   -0.3550 hn        1 MOL      0.216930
     50 H22        -0.7210    6.6990   -1.1410 h1        1 MOL      0.115529
     51 H23         0.0430    5.4840   -3.0800 hc        1 MOL      0.037897
     52 H24        -1.5400    5.8620   -3.2240 hc        1 MOL      0.037897
     53 N5         -2.7700    4.7740    0.2810 n         1 MOL     -0.009495
     54 C17        -3.9770    4.8590    1.0740 c3        1 MOL     -0.195239
     55 C18        -5.2080    4.1530    0.5010 c         1 MOL      0.688498
     56 O9         -6.2730    4.6850    0.6690 o         1 MOL     -0.595906
     57 H25        -2.0340    4.1960    0.6500 hn        1 MOL      0.085524
     58 H26        -4.2800    5.8970    1.1630 h1        1 MOL      0.084801
     59 H27        -3.8000    4.4540    2.0660 h1        1 MOL      0.084801
     60 N6         -5.0820    2.9640   -0.1240 n         1 MOL     -0.350107
     61 C19        -6.0560    2.1980   -0.9470 c3        1 MOL     -0.062207
     62 C20        -6.6300    0.9490   -0.2660 c         1 MOL      0.339372
     63 O10        -7.4490    0.3270   -0.8680 o         1 MOL     -0.468842
     64 C21        -5.5130    1.9880   -2.3820 c3        1 MOL     -0.163895
     65 C22        -4.6760    0.6950   -2.4630 c         1 MOL      0.446631
     66 N7         -4.8970   -0.1670   -3.4420 n         1 MOL     -0.673157
     67 O11        -3.9100    0.4210   -1.5320 o         1 MOL     -0.416423
     68 H28        -4.1450    2.5860   -0.0350 hn        1 MOL      0.059653
     69 H29        -6.9330    2.8380   -0.9910 h1        1 MOL      0.149022
     70 H30        -4.8950    2.7990   -2.7580 hc        1 MOL      0.108603
     71 H31        -6.3690    2.0710   -3.0500 hc        1 MOL      0.108603
     72 H32        -5.7380    0.0220   -3.9670 hn        1 MOL      0.354527
     73 H33        -4.5760   -1.1150   -3.2660 hn        1 MOL      0.354527
     74 N8         -6.1560    0.6670    0.9240 n         1 MOL     -0.142154
     75 C23        -6.5410   -0.4310    1.7990 c3        1 MOL     -0.195636
     76 C24        -5.6310   -1.6720    1.6770 c         1 MOL      0.751666
     77 O12        -6.1260   -2.7320    2.1870 o         1 MOL     -0.605580
     78 H34        -5.4600    1.2670    1.3410 hn        1 MOL      0.255124
     79 H35        -7.5670   -0.8160    1.7480 h1        1 MOL      0.098926
     80 H36        -6.3650   -0.0600    2.8100 h1        1 MOL      0.098926
     81 N9         -4.4100   -1.5900    1.1890 n         1 MOL     -0.682532
     82 C25        -3.6320   -2.8190    0.7450 c3        1 MOL      0.149643
     83 C26        -2.1550   -2.5130    0.7170 c         1 MOL      0.636131
     84 O13        -1.6850   -1.8340   -0.2190 o         1 MOL     -0.667290
     85 C27        -4.1690   -3.3500   -0.5630 c3        1 MOL      0.021764
     86 C28        -5.6280   -3.9720   -0.7120 ca        1 MOL      0.134621
     87 C29        -6.6760   -3.2590   -1.2740 ca        1 MOL     -0.343029
     88 C30        -5.8490   -5.3100   -0.3300 ca        1 MOL     -0.343029
     89 C31        -7.9030   -3.8220   -1.3410 ca        1 MOL      0.006585
     90 C32        -7.1350   -5.8590   -0.3370 ca        1 MOL      0.006585
     91 C33        -8.1650   -5.1550   -0.9630 ca        1 MOL      0.128109
     92 O14        -9.4100   -5.6760   -0.8950 oh        1 MOL     -0.466316
     93 H37        -4.1720   -0.6840    0.8300 hn        1 MOL      0.348930
     94 H38        -3.7570   -3.6700    1.4100 h1        1 MOL      0.044189
     95 H39        -3.4500   -4.1150   -0.8700 hc        1 MOL      0.007712
     96 H40        -4.0560   -2.6290   -1.3690 hc        1 MOL      0.007712
     97 H41        -6.5020   -2.2650   -1.6680 ha        1 MOL      0.151085
     98 H42        -5.0650   -5.8700    0.1420 ha        1 MOL      0.151085
     99 H43        -8.6400   -3.2200   -1.8590 ha        1 MOL      0.083794
    100 H44        -7.3100   -6.8880   -0.0460 ha        1 MOL      0.083794
    101 H45        -9.4810   -6.4350   -0.3040 ho        1 MOL      0.367811
    102 N10        -1.4030   -3.1260    1.6190 n         1 MOL     -0.496396
    103 C34         0.0290   -3.0920    1.7430 c3        1 MOL     -0.143628
    104 C35         0.5800   -4.0220    0.5650 c         1 MOL      0.559562
    105 O15         0.4110   -5.2490    0.6680 o         1 MOL     -0.557897
    106 C36         0.4860   -3.5950    3.1320 c3        1 MOL      0.194122
    107 C37         0.0210   -2.5740    4.1980 c3        1 MOL      0.201304
    108 C38         2.0720   -3.6680    3.1400 c3        1 MOL     -0.210692
    109 C39         0.0070   -3.2750    5.5180 c3        1 MOL     -0.212859
    110 H46        -1.9190   -3.6980    2.2880 hn        1 MOL      0.297938
    111 H47         0.3670   -2.0800    1.5370 h1        1 MOL      0.104781
    112 H48         0.1250   -4.6160    3.2510 hc        1 MOL      0.014170
    113 H49        -1.0250   -2.3270    4.0110 hc        1 MOL     -0.039845
    114 H50         0.5860   -1.6370    4.1610 hc        1 MOL     -0.039845
    115 H51         2.4910   -2.6640    3.0850 hc        1 MOL      0.041316
    116 H52         2.3080   -4.1190    4.1050 hc        1 MOL      0.041316
    117 H53         2.5490   -4.2890    2.3790 hc        1 MOL      0.041316
    118 H54         1.0090   -3.5510    5.8170 hc        1 MOL      0.040304
    119 H55        -0.3600   -2.4670    6.1520 hc        1 MOL      0.040304
    120 H56        -0.7120   -4.1060    5.5670 hc        1 MOL      0.040304
    121 N11         1.2620   -3.4040   -0.3770 n         1 MOL     -0.219297
    122 C40         2.1110   -4.1450   -1.3180 c3        1 MOL     -0.151937
    123 C41         3.6090   -4.1290   -0.9220 c         1 MOL      0.547161
    124 O16         4.1760   -3.4330   -0.0140 o         1 MOL     -0.498886
    125 C42         1.7890   -3.8020   -2.7780 c3        1 MOL      0.328939
    126 O17         2.1720   -2.4790   -2.9700 oh        1 MOL     -0.618215
    127 H57         1.3620   -2.3980   -0.2860 hn        1 MOL      0.247082
    128 H58         1.7840   -5.1890   -1.2750 h1        1 MOL      0.047277
    129 H59         0.7270   -3.8990   -2.9750 h1        1 MOL     -0.006875
    130 H60         2.3270   -4.4860   -3.4350 h1        1 MOL     -0.006875
    131 H61         1.9190   -1.8890   -2.2570 ho        1 MOL      0.361147
    132 N12         4.3350   -5.0040   -1.6410 n         1 MOL     -0.444637
    133 C43         5.7620   -5.2220   -1.4080 c3        1 MOL      0.183936
    134 C44         6.5650   -3.8480   -1.4180 c         1 MOL      0.399421
    135 O18         7.4000   -3.6840   -0.5200 o         1 MOL     -0.505145
    136 C45         6.2710   -6.1490   -2.5070 c3        1 MOL     -0.223592
    137 H62         3.8690   -5.6470   -2.2550 hn        1 MOL      0.302826
    138 H63         5.9350   -5.7600   -0.4830 h1        1 MOL      0.070260
    139 H64         6.2090   -5.6560   -3.4840 hc        1 MOL      0.061728
    140 H65         7.3270   -6.3380   -2.3030 hc        1 MOL      0.061728
    141 H66         5.6680   -7.0460   -2.4840 hc        1 MOL      0.061728
    142 N13         6.3130   -2.9650   -2.3740 n         1 MOL     -0.277406
    143 C46         7.0380   -1.7250   -2.5430 c3        1 MOL      0.056252
    144 C47         6.8430   -0.7460   -1.3250 c         1 MOL      0.371083
    145 O19         7.6680    0.0970   -0.9860 o         1 MOL     -0.521446
    146 C48         6.7220   -0.9990   -3.8170 c3        1 MOL     -0.316003
    147 H67         5.5910   -3.2210   -3.0250 hn        1 MOL      0.242505
    148 H68         8.1020   -1.9550   -2.5050 h1        1 MOL      0.096442
    149 H69         7.0890    0.0130   -3.6880 hc        1 MOL      0.092980
    150 H70         7.2130   -1.4910   -4.6560 hc        1 MOL      0.092980
    151 H71         5.6380   -0.8850   -3.8460 hc        1 MOL      0.092980
    152 N14         5.6620   -0.8930   -0.7050 n         1 MOL     -0.067679
    153 C49         5.3170   -0.0990    0.4990 c3        1 MOL     -0.297607
    154 C50         5.9670   -0.6930    1.7490 c         1 MOL      0.650775
    155 O20         6.6150    0.0500    2.4810 o         1 MOL     -0.558918
    156 C51         3.8200    0.2000    0.6650 c3        1 MOL      0.067879
    157 C52         3.1210    0.3820   -0.6990 c3        1 MOL     -0.012724
    158 C53         1.6570    0.4080   -0.7280 c         1 MOL      0.776130
    159 O21         1.0060    1.4810   -0.6440 o         1 MOL     -0.770778
    160 O22         1.0890   -0.6920   -0.8390 o         1 MOL     -0.770778
    161 H72         5.0470   -1.5940   -1.1000 hn        1 MOL      0.138130
    162 H73         5.7530    0.8950    0.4230 h1        1 MOL      0.113228
    163 H74         3.7360    1.1480    1.1990 hc        1 MOL      0.029975
    164 H75         3.3560   -0.6500    1.1720 hc        1 MOL      0.029975
    165 H76         3.3580   -0.4080   -1.4250 hc        1 MOL     -0.052603
    166 H77         3.3180    1.3480   -1.1710 hc        1 MOL     -0.052603
    167 N15         5.9880   -2.0390    1.9140 n         1 MOL     -0.224640
    168 C54         6.6960   -2.7720    2.9770 c3        1 MOL     -0.333229
    169 H78         7.7700   -2.6150    2.8730 h1        1 MOL      0.129134
    170 H79         6.3690   -2.4080    3.9510 h1        1 MOL      0.129134
    171 H80         6.4760   -3.8370    2.8930 h1        1 MOL      0.129134
    172 H81         5.4790   -2.5950    1.2460 hn        1 MOL      0.208917
    173 Ca1        -1.3320    0.5490   -1.3390 Ca        1 MOL      1.738015
    174 O23        -1.8350   -1.4300   -3.2150 oh        1 MOL     -0.826197
    175 H82        -1.8580   -2.3620   -3.0180 ho        1 MOL      0.395363
    176 H83        -1.7790   -1.3840   -4.1640 ho        1 MOL      0.395363
    177 O24        -0.0470    1.0390   -3.7280 oh        1 MOL     -0.826197
    178 H84        -0.3590    1.8910   -4.0330 ho        1 MOL      0.395363
    179 H85         0.6790    0.8290   -4.3130 ho        1 MOL      0.395363
@<TRIPOS>BOND
     1    1    2 1   
     2    1    4 1   
     3    1    5 1   
     4    1    6 1   
     5    2    3 2   
     6    2    7 1   
     7    7    8 1   
     8    7   15 1   
     9    8    9 1   
    10    8   11 1   
    11    8   16 1   
    12    9   10 2   
    13    9   19 1   
    14   11   12 1   
    15   11   17 1   
    16   11   18 1   
    17   12   13 1   
    18   12   14 1   
    19   19   20 1   
    20   19   28 1   
    21   20   21 1   
    22   20   23 1   
    23   20   29 1   
    24   21   22 2   
    25   21   41 1   
    26   23   24 1   
    27   23   30 1   
    28   23   31 1   
    29   24   25 1   
    30   24   32 1   
    31   24   33 1   
    32   25   26 1   
    33   25   34 1   
    34   25   35 1   
    35   26   27 1   
    36   26   36 1   
    37   26   37 1   
    38   27   38 1   
    39   27   39 1   
    40   27   40 1   
    41   41   42 1   
    42   41   49 1   
    43   42   43 1   
    44   42   45 1   
    45   42   50 1   
    46   43   44 2   
    47   43   53 1   
    48   45   46 1   
    49   45   51 1   
    50   45   52 1   
    51   46   47 1   
    52   46   48 1   
    53   53   54 1   
    54   53   57 1   
    55   54   55 1   
    56   54   58 1   
    57   54   59 1   
    58   55   56 2   
    59   55   60 1   
    60   60   61 1   
    61   60   68 1   
    62   61   62 1   
    63   61   64 1   
    64   61   69 1   
    65   62   63 2   
    66   62   74 1   
    67   64   65 1   
    68   64   70 1   
    69   64   71 1   
    70   65   66 1   
    71   65   67 2   
    72   66   72 1   
    73   66   73 1   
    74   74   75 1   
    75   74   78 1   
    76   75   76 1   
    77   75   79 1   
    78   75   80 1   
    79   76   77 2   
    80   76   81 1   
    81   81   82 1   
    82   81   93 1   
    83   82   83 1   
    84   82   85 1   
    85   82   94 1   
    86   83   84 2   
    87   83  102 1   
    88   85   86 1   
    89   85   95 1   
    90   85   96 1   
    91   86   87 ar  
    92   86   88 ar  
    93   87   89 ar  
    94   87   97 1   
    95   88   90 ar  
    96   88   98 1   
    97   89   91 ar  
    98   89   99 1   
    99   90   91 ar  
   100   90  100 1   
   101   91   92 1   
   102   92  101 1   
   103  102  103 1   
   104  102  110 1   
   105  103  104 1   
   106  103  106 1   
   107  103  111 1   
   108  104  105 2   
   109  104  121 1   
   110  106  107 1   
   111  106  108 1   
   112  106  112 1   
   113  107  109 1   
   114  107  113 1   
   115  107  114 1   
   116  108  115 1   
   117  108  116 1   
   118  108  117 1   
   119  109  118 1   
   120  109  119 1   
   121  109  120 1   
   122  121  122 1   
   123  121  127 1   
   124  122  123 1   
   125  122  125 1   
   126  122  128 1   
   127  123  124 2   
   128  123  132 1   
   129  125  126 1   
   130  125  129 1   
   131  125  130 1   
   132  126  131 1   
   133  132  133 1   
   134  132  137 1   
   135  133  134 1   
   136  133  136 1   
   137  133  138 1   
   138  134  135 2   
   139  134  142 1   
   140  136  139 1   
   141  136  140 1   
   142  136  141 1   
   143  142  143 1   
   144  142  147 1   
   145  143  144 1   
   146  143  146 1   
   147  143  148 1   
   148  144  145 2   
   149  144  152 1   
   150  146  149 1   
   151  146  150 1   
   152  146  151 1   
   153  152  153 1   
   154  152  161 1   
   155  153  154 1   
   156  153  156 1   
   157  153  162 1   
   158  154  155 2   
   159  154  167 1   
   160  156  157 1   
   161  156  163 1   
   162  156  164 1   
   163  157  158 1   
   164  157  165 1   
   165  157  166 1   
   166  158  159 1   
   167  158  160 1   
   168  167  168 1   
   169  167  172 1   
   170  168  169 1   
   171  168  170 1   
   172  168  171 1   
   173  174  175 1   
   174  174  176 1   
   175  177  178 1   
   176  177  179 1   
@<TRIPOS>SUBSTRUCTURE
     1 MOL         1 TEMP              0 ****  ****    0 ROOT
