@<TRIPOS>MOLECULE
MOL
  186   183     1     0     0
SMALL
resp


@<TRIPOS>ATOM
      1 C1         -0.3170    2.3960    5.5970 c3        1 MOL     -0.325035
      2 C2         -0.7600    2.2240    4.1700 c         1 MOL      0.866688
      3 O1          0.0080    2.5820    3.3310 o         1 MOL     -0.699542
      4 H1         -1.1410    2.7930    6.1880 hc        1 MOL      0.073298
      5 H2         -0.0110    1.4310    6.0010 hc        1 MOL      0.073298
      6 H3          0.5230    3.0890    5.6350 hc        1 MOL      0.073298
      7 N1         -1.9470    1.6800    3.9110 n         1 MOL     -0.780831
      8 C3         -2.4650    1.4560    2.5390 c3        1 MOL      0.341911
      9 C4         -2.9250    2.8030    1.9780 c         1 MOL      0.530113
     10 O2         -3.9280    3.3700    2.4560 o         1 MOL     -0.520892
     11 C5         -3.5770    0.3980    2.5530 c3        1 MOL     -0.518202
     12 C6         -4.1480    0.1000    1.2280 c         1 MOL      0.796615
     13 O3         -5.1770   -0.6410    1.1230 o         1 MOL     -0.648770
     14 O4         -3.6080    0.6860    0.2380 o         1 MOL     -0.648770
     15 H4         -2.5070    1.3740    4.7020 hn        1 MOL      0.363242
     16 H5         -1.6910    1.1150    1.8550 h1        1 MOL      0.054607
     17 H6         -4.3750    0.8090    3.1800 hc        1 MOL      0.132689
     18 H7         -3.2390   -0.5520    2.9670 hc        1 MOL      0.132689
     19 N2         -2.0990    3.3960    1.0080 n         1 MOL     -0.243445
     20 C7         -2.4410    4.7280    0.5250 c3        1 MOL     -0.210841
     21 C8         -3.7280    4.7080   -0.3270 c         1 MOL      0.452064
     22 O5         -4.3530    5.7250   -0.6440 o         1 MOL     -0.546154
     23 C9         -1.3040    5.2560   -0.3150 c3        1 MOL     -0.070536
     24 C10         0.0270    5.4690    0.4000 c3        1 MOL     -0.016009
     25 C11         1.0650    6.2410   -0.4240 c3        1 MOL     -0.149796
     26 C12         2.4930    5.9550    0.0950 c3        1 MOL      0.163734
     27 N3          2.7260    6.4210    1.5280 n4        1 MOL     -0.418148
     28 H8         -1.3650    2.9010    0.5210 hn        1 MOL      0.233800
     29 H9         -2.5780    5.3470    1.4210 h1        1 MOL      0.115148
     30 H10        -1.5530    6.0230   -1.0430 hc        1 MOL      0.117687
     31 H11        -1.0660    4.3930   -0.9350 hc        1 MOL      0.117687
     32 H12         0.4800    4.4890    0.5720 hc        1 MOL      0.038428
     33 H13        -0.0810    5.9800    1.3600 hc        1 MOL      0.038428
     34 H14         0.8140    7.2880   -0.3440 hc        1 MOL      0.058835
     35 H15         1.0160    5.9480   -1.4740 hc        1 MOL      0.058835
     36 H16         3.1570    6.5080   -0.5650 hx        1 MOL      0.051675
     37 H17         2.7490    4.9000    0.0110 hx        1 MOL      0.051675
     38 H18         2.7170    7.4250    1.6290 hn        1 MOL      0.335967
     39 H19         2.0230    6.0540    2.1560 hn        1 MOL      0.335967
     40 H20         3.5560    5.9690    1.8790 hn        1 MOL      0.335967
     41 N4         -4.0280    3.4820   -0.8610 n         1 MOL      0.297318
     42 C13        -4.9230    3.2300   -1.9460 c3        1 MOL     -0.049035
     43 C14        -6.2730    2.6810   -1.4250 c         1 MOL      0.279305
     44 O6         -7.3240    2.8630   -2.0680 o         1 MOL     -0.530947
     45 C15        -4.2780    2.2210   -2.9250 c3        1 MOL      0.068663
     46 C16        -2.9030    2.6590   -3.2330 c         1 MOL      0.553639
     47 O7         -2.6910    3.6760   -3.9420 o         1 MOL     -0.618734
     48 O8         -1.9820    2.0140   -2.6820 o         1 MOL     -0.618734
     49 H21        -3.4560    2.7130   -0.5390 hn        1 MOL     -0.565094
     50 H22        -5.1010    4.1250   -2.5360 h1        1 MOL      0.086387
     51 H23        -4.8180    2.1600   -3.8720 hc        1 MOL      0.015608
     52 H24        -4.3680    1.2190   -2.4940 hc        1 MOL      0.015608
     53 N5         -6.3130    2.0000   -0.3320 n         1 MOL     -0.093875
     54 C17        -7.5550    1.4440    0.1740 c3        1 MOL     -0.197612
     55 C18        -7.8840    0.0510   -0.4940 c         1 MOL      0.548640
     56 O9         -9.0300   -0.3450   -0.4440 o         1 MOL     -0.573162
     57 H25        -5.4620    1.9910    0.2130 hn        1 MOL      0.184726
     58 H26        -8.3180    2.1740   -0.1070 h1        1 MOL      0.103815
     59 H27        -7.6670    1.2690    1.2500 h1        1 MOL      0.103815
     60 N6         -6.8780   -0.5250   -1.1490 n         1 MOL     -0.278223
     61 C19        -7.0280   -1.7350   -1.9280 c3        1 MOL     -0.081234
     62 C20        -6.9840   -3.0330   -1.1990 c         1 MOL      0.426635
     63 O10        -7.2590   -4.1590   -1.7030 o         1 MOL     -0.551412
     64 C21        -6.0390   -1.6240   -3.1320 c3        1 MOL     -0.265896
     65 C22        -4.5660   -1.5290   -2.7600 c         1 MOL      0.783102
     66 O11        -4.2210   -1.7020   -1.6040 o         1 MOL     -0.788234
     67 O12        -3.7060   -0.9620   -3.4820 o         1 MOL     -0.788234
     68 H28        -5.9400   -0.1420   -1.0710 hn        1 MOL      0.366784
     69 H29        -8.0310   -1.6470   -2.3400 h1        1 MOL      0.127090
     70 H30        -6.3330   -0.7050   -3.6460 hc        1 MOL      0.085726
     71 H31        -6.0570   -2.4690   -3.8160 hc        1 MOL      0.085726
     72 N7         -6.6250   -2.9360    0.0910 n         1 MOL     -0.148093
     73 C23        -6.4180   -3.9700    1.0770 c3        1 MOL     -0.099568
     74 C24        -4.9750   -4.4280    0.9830 c         1 MOL      0.505422
     75 O13        -4.6460   -5.5870    1.3860 o         1 MOL     -0.592064
     76 H32        -6.2720   -2.0350    0.3920 hn        1 MOL      0.145106
     77 H33        -7.2100   -4.7210    1.0510 h1        1 MOL      0.085672
     78 H34        -6.5130   -3.4630    2.0350 h1        1 MOL      0.085672
     79 N8         -4.0230   -3.6570    0.4520 n         1 MOL     -0.186969
     80 C25        -2.5550   -4.0060    0.3060 c3        1 MOL     -0.156020
     81 C26        -1.6680   -2.9930    1.0230 c         1 MOL      0.696933
     82 O14        -1.6570   -1.8100    0.6680 o         1 MOL     -0.630393
     83 C27        -2.0500   -4.2300   -1.1260 c3        1 MOL      0.440122
     84 C28        -2.8240   -5.3310   -1.8610 c3        1 MOL     -0.390957
     85 O15        -1.9570   -3.1880   -2.0500 oh        1 MOL     -0.709006
     86 H35        -4.2710   -2.7400    0.1210 hn        1 MOL      0.149389
     87 H36        -2.3860   -4.9350    0.8490 h1        1 MOL      0.070401
     88 H37        -1.0520   -4.6780   -1.0250 h1        1 MOL     -0.002420
     89 H38        -2.7700   -3.2180   -2.5680 ho        1 MOL      0.432608
     90 H39        -3.1250   -6.1600   -1.2240 hc        1 MOL      0.108076
     91 H40        -3.6940   -4.9580   -2.3950 hc        1 MOL      0.108076
     92 H41        -2.3020   -5.8510   -2.6570 hc        1 MOL      0.108076
     93 N9         -0.7830   -3.5490    1.8390 n         1 MOL     -0.652760
     94 C29         0.4000   -2.7350    2.2640 c3        1 MOL      0.007408
     95 C30         1.5720   -3.3370    1.4540 c         1 MOL      0.422908
     96 O16         1.9930   -4.4620    1.6970 o         1 MOL     -0.527191
     97 C31         0.6750   -2.7840    3.7860 c3        1 MOL      0.139951
     98 C32        -0.5260   -2.2960    4.5060 c3        1 MOL      0.288823
     99 C33         1.9240   -2.0020    4.0560 c3        1 MOL     -0.263893
    100 C34        -0.4470   -2.7420    5.9860 c3        1 MOL     -0.375647
    101 H42        -0.7540   -4.5310    2.0600 hn        1 MOL      0.373499
    102 H43         0.3690   -1.7130    1.8860 h1        1 MOL      0.108893
    103 H44         0.8040   -3.8410    4.0290 hc        1 MOL      0.017560
    104 H45        -1.4800   -2.6790    4.1470 hc        1 MOL     -0.042644
    105 H46        -0.6770   -1.2200    4.3900 hc        1 MOL     -0.042644
    106 H47         2.1220   -1.7840    5.1060 hc        1 MOL      0.054052
    107 H48         2.8010   -2.6010    3.8050 hc        1 MOL      0.054052
    108 H49         1.9240   -1.0530    3.5170 hc        1 MOL      0.054052
    109 H50        -0.4390   -3.8220    6.0920 hc        1 MOL      0.080264
    110 H51         0.4810   -2.3890    6.4410 hc        1 MOL      0.080264
    111 H52        -1.3490   -2.3290    6.4430 hc        1 MOL      0.080264
    112 N10         2.1970   -2.5180    0.5490 n         1 MOL     -0.008987
    113 C35         3.4020   -2.7400   -0.1580 c3        1 MOL     -0.284371
    114 C36         4.6960   -2.2340    0.5370 c         1 MOL      0.737880
    115 O17         4.6580   -1.4040    1.4440 o         1 MOL     -0.558859
    116 C37         3.4270   -2.1140   -1.5780 c3        1 MOL      0.274555
    117 C38         2.3280   -2.6590   -2.4990 c3        1 MOL     -0.154336
    118 O18         3.2680   -0.7720   -1.5510 oh        1 MOL     -0.562813
    119 H53         1.6120   -1.7490    0.2380 hn        1 MOL      0.132455
    120 H54         3.5910   -3.8060   -0.2770 h1        1 MOL      0.072823
    121 H55         4.3880   -2.3180   -2.0460 h1        1 MOL     -0.007993
    122 H56         2.4590   -0.5820   -1.0800 ho        1 MOL      0.435890
    123 H57         1.3310   -2.6980   -2.0540 hc        1 MOL      0.029167
    124 H58         2.1790   -2.0040   -3.3510 hc        1 MOL      0.029167
    125 H59         2.5200   -3.6170   -2.9840 hc        1 MOL      0.029167
    126 N11         5.8420   -2.7320    0.0850 n         1 MOL     -0.563931
    127 C39         7.2090   -2.3820    0.6080 c3        1 MOL     -0.004335
    128 C40         7.5330   -0.9080    0.3560 c         1 MOL      0.375677
    129 O19         8.3070   -0.3210    1.0940 o         1 MOL     -0.477669
    130 C41         8.3000   -3.2030   -0.1070 c3        1 MOL      0.438431
    131 C42         8.1950   -4.6810    0.1280 c3        1 MOL     -0.389364
    132 O20         8.3810   -2.8840   -1.4480 oh        1 MOL     -0.671044
    133 H60         5.7640   -3.4480   -0.6100 hn        1 MOL      0.313575
    134 H61         7.4550   -2.5640    1.6540 h1        1 MOL      0.114088
    135 H62         9.2260   -2.9380    0.4090 h1        1 MOL     -0.012800
    136 H63         9.2170   -3.2770   -1.7220 ho        1 MOL      0.405097
    137 H64         7.3790   -5.0970   -0.4630 hc        1 MOL      0.104564
    138 H65         9.1270   -5.1300   -0.2030 hc        1 MOL      0.104564
    139 H66         8.1370   -4.8510    1.2060 hc        1 MOL      0.104564
    140 N12         6.9270   -0.3410   -0.7200 n         1 MOL     -0.384934
    141 C43         7.0010    1.1280   -0.9470 c3        1 MOL      0.048472
    142 C44         6.0870    1.9350    0.0070 c         1 MOL      0.360509
    143 O21         6.4880    2.9860    0.5110 o         1 MOL     -0.536413
    144 C45         6.7790    1.5060   -2.4540 c3        1 MOL     -0.170420
    145 C46         7.7370    0.7170   -3.3910 c3        1 MOL      0.089940
    146 C47         7.3110    1.0550   -4.8460 c3        1 MOL      0.039949
    147 C48         8.1040    0.2480   -5.8740 c3        1 MOL     -0.024384
    148 N13         9.5560    0.5750   -5.8170 n4        1 MOL     -0.295161
    149 H67         6.3370   -0.8960   -1.3180 hn        1 MOL      0.376113
    150 H68         8.0080    1.4570   -0.6770 h1        1 MOL      0.106008
    151 H69         6.9190    2.5840   -2.5630 hc        1 MOL      0.065460
    152 H70         5.7570    1.2500   -2.7150 hc        1 MOL      0.065460
    153 H71         7.5970   -0.3650   -3.2730 hc        1 MOL     -0.016364
    154 H72         8.7810    0.9580   -3.2120 hc        1 MOL     -0.016364
    155 H73         7.5050    2.1120   -5.0070 hc        1 MOL      0.027119
    156 H74         6.2560    0.9080   -5.0300 hc        1 MOL      0.027119
    157 H75         7.7360    0.5030   -6.8770 hx        1 MOL      0.093925
    158 H76         7.9140   -0.8260   -5.7520 hx        1 MOL      0.093925
    159 H77        10.0620    0.2440   -4.9990 hn        1 MOL      0.272928
    160 H78         9.9640    0.1340   -6.6340 hn        1 MOL      0.272928
    161 H79         9.6850    1.5730   -5.8400 hn        1 MOL      0.272928
    162 N14         4.9050    1.4190    0.3230 n         1 MOL      0.011406
    163 C49         3.9660    1.9100    1.3850 c3        1 MOL     -0.324703
    164 C50         4.5160    1.8950    2.7880 c         1 MOL      0.587851
    165 O22         4.0620    2.6660    3.6000 o         1 MOL     -0.557078
    166 C51         2.5300    1.3860    1.2680 c3        1 MOL      0.031820
    167 C52         1.8170    1.7720   -0.0420 c3        1 MOL     -0.036025
    168 C53         0.6020    0.8830   -0.2170 c         1 MOL      0.682587
    169 O23         0.9230   -0.2580   -0.6180 o         1 MOL     -0.717406
    170 O24        -0.5780    1.3310   -0.1850 o         1 MOL     -0.717406
    171 H80         4.6600    0.4640    0.0620 hn        1 MOL     -0.071602
    172 H81         3.9310    2.9880    1.2470 h1        1 MOL      0.086482
    173 H82         2.0140    1.8610    2.0900 hc        1 MOL      0.071950
    174 H83         2.6040    0.2980    1.3370 hc        1 MOL      0.071950
    175 H84         2.4430    1.6030   -0.9230 hc        1 MOL      0.014772
    176 H85         1.6180    2.8370   -0.1080 hc        1 MOL      0.014772
    177 N15         5.4840    0.9790    3.1180 n         1 MOL     -0.211198
    178 C54         6.2120    0.9100    4.3650 c3        1 MOL     -0.233765
    179 H86         5.5620    0.5130    5.1430 h1        1 MOL      0.100820
    180 H87         7.0760    0.2560    4.2460 h1        1 MOL      0.100820
    181 H88         6.5470    1.9080    4.6460 h1        1 MOL      0.100820
    182 H89         5.5590    0.2140    2.4540 hn        1 MOL      0.273758
    183 Ca1        -1.8870   -0.3780   -1.5510 Ca        1 MOL      1.814421
    184 O25        -0.6340   -1.2590   -3.7320 oh        1 MOL     -0.905928
    185 H90        -0.7900   -2.1750   -3.9670 ho        1 MOL      0.440082
    186 H91         0.1480   -1.0130   -4.2280 ho        1 MOL      0.440082
@<TRIPOS>BOND
     1    1    2 1   
     2    1    4 1   
     3    1    5 1   
     4    1    6 1   
     5    2    3 2   
     6    2    7 1   
     7    7    8 1   
     8    7   15 1   
     9    8    9 1   
    10    8   11 1   
    11    8   16 1   
    12    9   10 2   
    13    9   19 1   
    14   11   12 1   
    15   11   17 1   
    16   11   18 1   
    17   12   13 1   
    18   12   14 1   
    19   19   20 1   
    20   19   28 1   
    21   20   21 1   
    22   20   23 1   
    23   20   29 1   
    24   21   22 2   
    25   21   41 1   
    26   23   24 1   
    27   23   30 1   
    28   23   31 1   
    29   24   25 1   
    30   24   32 1   
    31   24   33 1   
    32   25   26 1   
    33   25   34 1   
    34   25   35 1   
    35   26   27 1   
    36   26   36 1   
    37   26   37 1   
    38   27   38 1   
    39   27   39 1   
    40   27   40 1   
    41   41   42 1   
    42   41   49 1   
    43   42   43 1   
    44   42   45 1   
    45   42   50 1   
    46   43   44 2   
    47   43   53 1   
    48   45   46 1   
    49   45   51 1   
    50   45   52 1   
    51   46   47 1   
    52   46   48 1   
    53   53   54 1   
    54   53   57 1   
    55   54   55 1   
    56   54   58 1   
    57   54   59 1   
    58   55   56 2   
    59   55   60 1   
    60   60   61 1   
    61   60   68 1   
    62   61   62 1   
    63   61   64 1   
    64   61   69 1   
    65   62   63 2   
    66   62   72 1   
    67   64   65 1   
    68   64   70 1   
    69   64   71 1   
    70   65   66 1   
    71   65   67 1   
    72   72   73 1   
    73   72   76 1   
    74   73   74 1   
    75   73   77 1   
    76   73   78 1   
    77   74   75 2   
    78   74   79 1   
    79   79   80 1   
    80   79   86 1   
    81   80   81 1   
    82   80   83 1   
    83   80   87 1   
    84   81   82 2   
    85   81   93 1   
    86   83   84 1   
    87   83   85 1   
    88   83   88 1   
    89   84   90 1   
    90   84   91 1   
    91   84   92 1   
    92   85   89 1   
    93   93   94 1   
    94   93  101 1   
    95   94   95 1   
    96   94   97 1   
    97   94  102 1   
    98   95   96 2   
    99   95  112 1   
   100   97   98 1   
   101   97   99 1   
   102   97  103 1   
   103   98  100 1   
   104   98  104 1   
   105   98  105 1   
   106   99  106 1   
   107   99  107 1   
   108   99  108 1   
   109  100  109 1   
   110  100  110 1   
   111  100  111 1   
   112  112  113 1   
   113  112  119 1   
   114  113  114 1   
   115  113  116 1   
   116  113  120 1   
   117  114  115 2   
   118  114  126 1   
   119  116  117 1   
   120  116  118 1   
   121  116  121 1   
   122  117  123 1   
   123  117  124 1   
   124  117  125 1   
   125  118  122 1   
   126  126  127 1   
   127  126  133 1   
   128  127  128 1   
   129  127  130 1   
   130  127  134 1   
   131  128  129 2   
   132  128  140 1   
   133  130  131 1   
   134  130  132 1   
   135  130  135 1   
   136  131  137 1   
   137  131  138 1   
   138  131  139 1   
   139  132  136 1   
   140  140  141 1   
   141  140  149 1   
   142  141  142 1   
   143  141  144 1   
   144  141  150 1   
   145  142  143 2   
   146  142  162 1   
   147  144  145 1   
   148  144  151 1   
   149  144  152 1   
   150  145  146 1   
   151  145  153 1   
   152  145  154 1   
   153  146  147 1   
   154  146  155 1   
   155  146  156 1   
   156  147  148 1   
   157  147  157 1   
   158  147  158 1   
   159  148  159 1   
   160  148  160 1   
   161  148  161 1   
   162  162  163 1   
   163  162  171 1   
   164  163  164 1   
   165  163  166 1   
   166  163  172 1   
   167  164  165 2   
   168  164  177 1   
   169  166  167 1   
   170  166  173 1   
   171  166  174 1   
   172  167  168 1   
   173  167  175 1   
   174  167  176 1   
   175  168  169 1   
   176  168  170 1   
   177  177  178 1   
   178  177  182 1   
   179  178  179 1   
   180  178  180 1   
   181  178  181 1   
   182  184  185 1   
   183  184  186 1   
@<TRIPOS>SUBSTRUCTURE
     1 MOL         1 TEMP              0 ****  ****    0 ROOT
