@<TRIPOS>MOLECULE
MOL
  189   185     1     0     0
SMALL
resp


@<TRIPOS>ATOM
      1 C1          0.2810    4.3220    5.9770 c3        1 MOL     -0.441646
      2 C2         -0.3060    3.7850    4.6930 c         1 MOL      0.714230
      3 O1         -0.4970    2.5550    4.5990 o         1 MOL     -0.610161
      4 H1          0.7060    5.3090    5.7980 hc        1 MOL      0.115247
      5 H2         -0.5020    4.3960    6.7320 hc        1 MOL      0.115247
      6 H3          1.0630    3.6480    6.3290 hc        1 MOL      0.115247
      7 N1         -0.6590    4.5840    3.6750 n         1 MOL     -0.508449
      8 C3         -1.2670    4.1250    2.4100 c3        1 MOL      0.153167
      9 C4         -0.9290    5.1020    1.3310 c         1 MOL      0.511869
     10 O2         -0.7090    6.3030    1.5810 o         1 MOL     -0.573713
     11 C5         -2.8060    4.1400    2.6300 c3        1 MOL     -0.220062
     12 C6         -3.5280    3.8600    1.2570 c         1 MOL      0.630486
     13 O3         -4.2140    4.7690    0.7540 o         1 MOL     -0.646986
     14 O4         -3.2890    2.7920    0.6710 o         1 MOL     -0.646986
     15 H4         -0.5660    5.5640    3.8600 hn        1 MOL      0.284009
     16 H5         -1.0200    3.0920    2.1770 h1        1 MOL      0.038748
     17 H6         -3.2370    5.0210    3.1050 hc        1 MOL      0.039172
     18 H7         -3.0040    3.4140    3.4300 hc        1 MOL      0.039172
     19 N2         -0.7920    4.6140    0.0540 n         1 MOL     -0.257801
     20 C7         -0.4020    5.4410   -1.0890 c3        1 MOL      0.039211
     21 C8         -1.4930    5.2270   -2.1900 c         1 MOL      0.470373
     22 O5         -1.4500    5.9050   -3.2110 o         1 MOL     -0.579639
     23 C9          1.0710    5.2250   -1.4870 c3        1 MOL      0.235828
     24 C10         2.0450    5.3430   -0.2810 c3        1 MOL     -0.067803
     25 C11         1.5520    6.0580   -2.7500 c3        1 MOL     -0.345824
     26 C12         3.4590    4.8000   -0.5190 c3        1 MOL     -0.218224
     27 H8         -0.7810    3.6400   -0.1870 hn        1 MOL      0.092630
     28 H9         -0.4520    6.4840   -0.7770 h1        1 MOL      0.050902
     29 H10         1.1220    4.1670   -1.7710 hc        1 MOL      0.011847
     30 H11         1.6730    4.8040    0.5880 hc        1 MOL      0.012166
     31 H12         2.0150    6.3840    0.0230 hc        1 MOL      0.012166
     32 H13         0.8270    5.9770   -3.5710 hc        1 MOL      0.071570
     33 H14         1.5680    7.1370   -2.5910 hc        1 MOL      0.071570
     34 H15         2.4830    5.5670   -3.0010 hc        1 MOL      0.071570
     35 H16         3.4830    3.8310   -1.0170 hc        1 MOL      0.065379
     36 H17         4.1350    5.5560   -0.9210 hc        1 MOL      0.065379
     37 H18         3.9680    4.7050    0.4400 hc        1 MOL      0.065379
     38 N3         -2.4410    4.3320   -2.0740 n         1 MOL     -0.307395
     39 C13        -3.3460    3.9350   -3.2160 c3        1 MOL      0.004939
     40 C14        -4.8030    3.6080   -2.8680 c         1 MOL      0.359539
     41 O6         -5.6380    3.5420   -3.7900 o         1 MOL     -0.560173
     42 C15        -2.7520    2.7330   -4.0060 c3        1 MOL     -0.082124
     43 C16        -2.6730    1.4320   -3.2600 c         1 MOL      0.750663
     44 O7         -3.0080    1.3750   -2.0870 o         1 MOL     -0.705469
     45 O8         -2.2420    0.4240   -3.8580 o         1 MOL     -0.705469
     46 H19        -2.5530    3.7970   -1.2200 hn        1 MOL      0.226379
     47 H20        -3.3310    4.7060   -3.9860 h1        1 MOL      0.102128
     48 H21        -1.7870    3.0140   -4.4360 hc        1 MOL      0.029049
     49 H22        -3.2780    2.5360   -4.9380 hc        1 MOL      0.029049
     50 N4         -5.2400    3.3610   -1.6200 n         1 MOL     -0.060493
     51 C17        -6.6250    3.0340   -1.2420 c3        1 MOL     -0.362198
     52 C18        -7.1380    1.6150   -1.4740 c         1 MOL      0.588042
     53 O9         -8.3430    1.5010   -1.3530 o         1 MOL     -0.625175
     54 H23        -4.6150    3.3800   -0.8320 hn        1 MOL      0.134282
     55 H24        -7.3110    3.7060   -1.7710 h1        1 MOL      0.141093
     56 H25        -6.7470    3.1360   -0.1650 h1        1 MOL      0.141093
     57 N5         -6.3260    0.6210   -1.8050 n         1 MOL     -0.192707
     58 C19        -6.8360   -0.7060   -2.1360 c3        1 MOL     -0.097626
     59 C20        -7.3360   -1.6210   -0.9510 c         1 MOL      0.482955
     60 O10        -8.0240   -2.5970   -1.1540 o         1 MOL     -0.530021
     61 C21        -5.6980   -1.4630   -2.8460 c3        1 MOL     -0.104418
     62 C22        -4.5430   -1.7960   -1.9230 c         1 MOL      0.682479
     63 O11        -4.3360   -1.2300   -0.8690 o         1 MOL     -0.688117
     64 O12        -3.7180   -2.6370   -2.3710 o         1 MOL     -0.688117
     65 H26        -5.3660    0.8920   -1.9830 hn        1 MOL      0.194238
     66 H27        -7.6070   -0.7340   -2.8970 h1        1 MOL      0.104725
     67 H28        -5.3280   -0.8530   -3.6670 hc        1 MOL      0.043327
     68 H29        -6.1360   -2.3680   -3.2730 hc        1 MOL      0.043327
     69 N6         -7.1230   -1.2100    0.3080 n         1 MOL     -0.366123
     70 C23        -7.4030   -2.0720    1.4670 c3        1 MOL     -0.135816
     71 C24        -6.3130   -3.1140    1.8170 c         1 MOL      0.449621
     72 O13        -6.5560   -4.0500    2.6020 o         1 MOL     -0.596637
     73 H30        -6.6210   -0.3440    0.4500 hn        1 MOL      0.294948
     74 H31        -8.2510   -2.7510    1.3670 h1        1 MOL      0.097983
     75 H32        -7.5960   -1.4750    2.3670 h1        1 MOL      0.097983
     76 N7         -5.1770   -3.0560    1.1410 n         1 MOL     -0.240592
     77 C25        -4.0890   -4.0500    1.3030 c3        1 MOL     -0.066177
     78 C26        -2.6980   -3.3540    1.4290 c         1 MOL      0.495510
     79 O14        -2.4440   -2.2870    0.8610 o         1 MOL     -0.460606
     80 C27        -4.0580   -5.0060    0.0670 c3        1 MOL      0.023335
     81 C28        -5.4700   -5.3930   -0.4780 c3        1 MOL     -0.127757
     82 C29        -5.3100   -6.6840   -1.3240 c         1 MOL      0.562078
     83 N8         -6.3560   -7.0500   -2.0270 n         1 MOL     -0.692939
     84 O15        -4.2730   -7.2920   -1.3850 o         1 MOL     -0.548808
     85 H33        -4.9330   -2.2390    0.5940 hn        1 MOL      0.210633
     86 H34        -4.2030   -4.6540    2.2070 h1        1 MOL      0.045946
     87 H35        -3.5300   -5.8660    0.4740 hc        1 MOL      0.032664
     88 H36        -3.3940   -4.5060   -0.6450 hc        1 MOL      0.032664
     89 H37        -5.9220   -4.6390   -1.1230 hc        1 MOL      0.082387
     90 H38        -6.1350   -5.6190    0.3470 hc        1 MOL      0.082387
     91 H39        -7.2750   -6.6570   -1.8900 hn        1 MOL      0.314992
     92 H40        -6.2530   -7.9590   -2.4450 hn        1 MOL      0.314992
     93 N9         -1.7990   -3.9060    2.1940 n         1 MOL     -0.434457
     94 C30        -0.5030   -3.2890    2.4050 c3        1 MOL     -0.275737
     95 C31         0.5510   -3.6180    1.3020 c         1 MOL      0.809320
     96 O16         0.8840   -4.7000    1.1350 o         1 MOL     -0.629275
     97 C32         0.0610   -3.6340    3.8110 c3        1 MOL      0.300611
     98 C33         1.3820   -2.8400    3.9890 c3        1 MOL     -0.328940
     99 C34        -0.8680   -3.1130    4.9140 c3        1 MOL     -0.328940
    100 H41        -2.0530   -4.7870    2.6080 hn        1 MOL      0.320348
    101 H42        -0.6770   -2.2110    2.3540 h1        1 MOL      0.163308
    102 H43         0.2690   -4.6740    4.0590 hc        1 MOL     -0.016850
    103 H44         1.7290   -2.9900    5.0080 hc        1 MOL      0.070523
    104 H45         2.1590   -3.1570    3.2860 hc        1 MOL      0.070523
    105 H46         1.2520   -1.7780    3.7460 hc        1 MOL      0.070523
    106 H47        -0.4290   -3.1790    5.9070 hc        1 MOL      0.070523
    107 H48        -0.9660   -2.0300    4.8420 hc        1 MOL      0.070523
    108 H49        -1.7930   -3.6990    4.8930 hc        1 MOL      0.070523
    109 N10         1.1930   -2.6390    0.6820 n         1 MOL     -0.524936
    110 C35         2.3390   -2.8010   -0.1730 c3        1 MOL      0.387501
    111 C36         3.6700   -2.6040    0.5900 c         1 MOL      0.150893
    112 O17         3.6460   -2.0280    1.6610 o         1 MOL     -0.244625
    113 C37         2.2260   -1.8240   -1.3890 c3        1 MOL     -0.339861
    114 C38         3.4420   -1.8450   -2.3350 c         1 MOL      0.619764
    115 N11         3.7360   -2.9810   -2.8750 n         1 MOL     -0.664392
    116 O18         4.1820   -0.8290   -2.4550 o         1 MOL     -0.539772
    117 H50         0.9090   -1.6910    0.8530 hn        1 MOL      0.167652
    118 H51         2.4390   -3.8200   -0.5490 h1        1 MOL     -0.008951
    119 H52         2.0860   -0.8110   -1.0040 hc        1 MOL      0.135627
    120 H53         1.3270   -2.0570   -1.9580 hc        1 MOL      0.135627
    121 H54         3.1120   -3.7760   -2.8890 hn        1 MOL      0.317071
    122 H55         4.5330   -3.0540   -3.4840 hn        1 MOL      0.317071
    123 N12         4.8630   -2.9420    0.0170 n         1 MOL     -0.122588
    124 C39         6.1750   -2.9040    0.7590 c3        1 MOL      0.017327
    125 C40         6.6560   -1.4610    0.9540 c         1 MOL      0.501618
    126 O19         7.1740   -1.1750    1.9780 o         1 MOL     -0.572481
    127 C41         7.2240   -3.7390    0.0240 c3        1 MOL     -0.219492
    128 C42         7.3350   -3.4740   -1.4530 ca        1 MOL      0.127844
    129 C43         6.5540   -4.2010   -2.3630 ca        1 MOL     -0.240927
    130 C44         8.1490   -2.5010   -2.0280 ca        1 MOL     -0.240927
    131 C45         6.5080   -3.8600   -3.7380 ca        1 MOL     -0.208435
    132 C46         8.2160   -2.2040   -3.4100 ca        1 MOL     -0.208435
    133 C47         7.3110   -2.8640   -4.2750 ca        1 MOL      0.329096
    134 O20         7.2190   -2.6170   -5.5800 oh        1 MOL     -0.557872
    135 H56         4.8710   -3.3800   -0.8890 hn        1 MOL      0.056874
    136 H57         6.0530   -3.3360    1.7450 h1        1 MOL      0.078488
    137 H58         6.9890   -4.7790    0.2430 hc        1 MOL      0.080296
    138 H59         8.2090   -3.5810    0.4610 hc        1 MOL      0.080296
    139 H60         5.9020   -4.9900   -2.0100 ha        1 MOL      0.151692
    140 H61         8.7740   -1.9630   -1.3380 ha        1 MOL      0.151692
    141 H62         5.9060   -4.4180   -4.4380 ha        1 MOL      0.134313
    142 H63         8.9930   -1.6220   -3.8720 ha        1 MOL      0.134313
    143 H64         7.7430   -1.8490   -5.8270 ho        1 MOL      0.439198
    144 N13         6.3590   -0.5550    0.0370 n         1 MOL     -0.126225
    145 C48         6.6180    0.9260    0.1070 c3        1 MOL     -0.442140
    146 C49         5.6630    1.6120    1.1570 c         1 MOL      0.576170
    147 O21         5.9640    2.7600    1.5530 o         1 MOL     -0.523654
    148 C50         6.2170    1.5830   -1.2470 c3        1 MOL      0.543043
    149 C51         7.1190    1.1650   -2.4040 c3        1 MOL     -0.407145
    150 C52         8.4180    1.8950   -2.4900 c         1 MOL      0.759100
    151 O22         8.5340    2.5500   -3.5960 o         1 MOL     -0.755259
    152 O23         9.2200    2.0200   -1.5480 o         1 MOL     -0.755259
    153 H65         5.7940   -0.9280   -0.7080 hn        1 MOL      0.267444
    154 H66         7.6420    1.1270    0.4040 h1        1 MOL      0.207131
    155 H67         6.1630    2.6670   -1.1020 hc        1 MOL     -0.086757
    156 H68         5.2110    1.3040   -1.5500 hc        1 MOL     -0.086757
    157 H69         6.5350    1.3720   -3.2960 hc        1 MOL      0.054775
    158 H70         7.1940    0.0840   -2.3770 hc        1 MOL      0.054775
    159 N14         4.5730    0.8740    1.6160 n         1 MOL     -0.401588
    160 C53         3.6990    1.2980    2.7000 c3        1 MOL      0.073457
    161 C54         4.1010    0.6620    4.0720 c         1 MOL      0.413316
    162 O24         3.9510    1.3350    5.1320 o         1 MOL     -0.570481
    163 C55         2.2090    0.9630    2.4140 c3        1 MOL      0.216140
    164 C56         1.8270    1.3700    1.0160 c3        1 MOL     -0.092923
    165 C57         0.3640    1.0420    0.6870 c         1 MOL      0.667614
    166 O25        -0.2490    1.8150   -0.0520 o         1 MOL     -0.638752
    167 O26        -0.1010   -0.0760    0.9400 o         1 MOL     -0.638752
    168 H71         4.4550   -0.0860    1.3210 hn        1 MOL      0.090434
    169 H72         3.8380    2.3710    2.7860 h1        1 MOL      0.050708
    170 H73         1.6690    1.5260    3.1680 hc        1 MOL     -0.042620
    171 H74         2.1150   -0.1270    2.5430 hc        1 MOL     -0.042620
    172 H75         2.4200    0.8530    0.2700 hc        1 MOL      0.012648
    173 H76         2.0580    2.4340    1.0100 hc        1 MOL      0.012648
    174 N15         4.6370   -0.5850    4.1040 n         1 MOL     -0.086446
    175 C58         4.8490   -1.4100    5.2680 c3        1 MOL     -0.204343
    176 H77         5.8360   -1.8690    5.2130 h1        1 MOL      0.076840
    177 H78         4.7850   -0.7960    6.1660 h1        1 MOL      0.076840
    178 H79         4.0880   -2.1900    5.3050 h1        1 MOL      0.076840
    179 H80         4.7240   -1.0120    3.1940 hn        1 MOL      0.103430
    180 Ca1        -2.5180    0.3940    0.2910 Ca        1 MOL      1.721804
    181 O27        -2.0740    0.5460    2.9210 oh        1 MOL     -0.927819
    182 O28        -1.5480   -1.0900   -1.9630 oh        1 MOL     -0.927819
    183 H81        -1.4530    0.9650    3.5100 ho        1 MOL      0.430199
    184 H82        -1.8610   -0.6270   -2.7390 ho        1 MOL      0.430199
    185 H83        -2.7220    0.1540    3.5040 ho        1 MOL      0.430199
    186 H84        -2.0950   -1.8750   -1.9130 ho        1 MOL      0.430199
    187 O29        -4.7500    0.0810    1.7330 oh        1 MOL     -0.927819
    188 H85        -5.4070    0.7560    1.8890 ho        1 MOL      0.430199
    189 H86        -4.5180   -0.2320    2.6100 ho        1 MOL      0.430199
@<TRIPOS>BOND
     1    1    2 1   
     2    1    4 1   
     3    1    5 1   
     4    1    6 1   
     5    2    3 2   
     6    2    7 1   
     7    7    8 1   
     8    7   15 1   
     9    8    9 1   
    10    8   11 1   
    11    8   16 1   
    12    9   10 2   
    13    9   19 1   
    14   11   12 1   
    15   11   17 1   
    16   11   18 1   
    17   12   13 1   
    18   12   14 1   
    19   19   20 1   
    20   19   27 1   
    21   20   21 1   
    22   20   23 1   
    23   20   28 1   
    24   21   22 2   
    25   21   38 1   
    26   23   24 1   
    27   23   25 1   
    28   23   29 1   
    29   24   26 1   
    30   24   30 1   
    31   24   31 1   
    32   25   32 1   
    33   25   33 1   
    34   25   34 1   
    35   26   35 1   
    36   26   36 1   
    37   26   37 1   
    38   38   39 1   
    39   38   46 1   
    40   39   40 1   
    41   39   42 1   
    42   39   47 1   
    43   40   41 2   
    44   40   50 1   
    45   42   43 1   
    46   42   48 1   
    47   42   49 1   
    48   43   44 1   
    49   43   45 1   
    50   50   51 1   
    51   50   54 1   
    52   51   52 1   
    53   51   55 1   
    54   51   56 1   
    55   52   53 2   
    56   52   57 1   
    57   57   58 1   
    58   57   65 1   
    59   58   59 1   
    60   58   61 1   
    61   58   66 1   
    62   59   60 2   
    63   59   69 1   
    64   61   62 1   
    65   61   67 1   
    66   61   68 1   
    67   62   63 1   
    68   62   64 1   
    69   69   70 1   
    70   69   73 1   
    71   70   71 1   
    72   70   74 1   
    73   70   75 1   
    74   71   72 2   
    75   71   76 1   
    76   76   77 1   
    77   76   85 1   
    78   77   78 1   
    79   77   80 1   
    80   77   86 1   
    81   78   79 2   
    82   78   93 1   
    83   80   81 1   
    84   80   87 1   
    85   80   88 1   
    86   81   82 1   
    87   81   89 1   
    88   81   90 1   
    89   82   83 1   
    90   82   84 2   
    91   83   91 1   
    92   83   92 1   
    93   93   94 1   
    94   93  100 1   
    95   94   95 1   
    96   94   97 1   
    97   94  101 1   
    98   95   96 2   
    99   95  109 1   
   100   97   98 1   
   101   97   99 1   
   102   97  102 1   
   103   98  103 1   
   104   98  104 1   
   105   98  105 1   
   106   99  106 1   
   107   99  107 1   
   108   99  108 1   
   109  109  110 1   
   110  109  117 1   
   111  110  111 1   
   112  110  113 1   
   113  110  118 1   
   114  111  112 2   
   115  111  123 1   
   116  113  114 1   
   117  113  119 1   
   118  113  120 1   
   119  114  115 1   
   120  114  116 2   
   121  115  121 1   
   122  115  122 1   
   123  123  124 1   
   124  123  135 1   
   125  124  125 1   
   126  124  127 1   
   127  124  136 1   
   128  125  126 2   
   129  125  144 1   
   130  127  128 1   
   131  127  137 1   
   132  127  138 1   
   133  128  129 ar  
   134  128  130 ar  
   135  129  131 ar  
   136  129  139 1   
   137  130  132 ar  
   138  130  140 1   
   139  131  133 ar  
   140  131  141 1   
   141  132  133 ar  
   142  132  142 1   
   143  133  134 1   
   144  134  143 1   
   145  144  145 1   
   146  144  153 1   
   147  145  146 1   
   148  145  148 1   
   149  145  154 1   
   150  146  147 2   
   151  146  159 1   
   152  148  149 1   
   153  148  155 1   
   154  148  156 1   
   155  149  150 1   
   156  149  157 1   
   157  149  158 1   
   158  150  151 1   
   159  150  152 1   
   160  159  160 1   
   161  159  168 1   
   162  160  161 1   
   163  160  163 1   
   164  160  169 1   
   165  161  162 2   
   166  161  174 1   
   167  163  164 1   
   168  163  170 1   
   169  163  171 1   
   170  164  165 1   
   171  164  172 1   
   172  164  173 1   
   173  165  166 1   
   174  165  167 1   
   175  174  175 1   
   176  174  179 1   
   177  175  176 1   
   178  175  177 1   
   179  175  178 1   
   180  181  183 1   
   181  181  185 1   
   182  182  184 1   
   183  182  186 1   
   184  187  188 1   
   185  187  189 1   
@<TRIPOS>SUBSTRUCTURE
     1 MOL         1 TEMP              0 ****  ****    0 ROOT
