@<TRIPOS>MOLECULE
MOL
  186   183     1     0     0
SMALL
resp


@<TRIPOS>ATOM
      1 C1          0.7710   -1.7600    6.3910 c3        1 MOL     -0.231847
      2 C2          1.1780   -1.9510    4.8950 c         1 MOL      0.694171
      3 O1          0.3790   -2.3940    4.0500 o         1 MOL     -0.538071
      4 H1         -0.3020   -1.5780    6.4550 hc        1 MOL      0.052884
      5 H2          1.0210   -2.6600    6.9530 hc        1 MOL      0.052884
      6 H3          1.3080   -0.9080    6.8080 hc        1 MOL      0.052884
      7 N1          2.4970   -1.7210    4.5650 n         1 MOL     -0.649944
      8 C3          2.9400   -1.6900    3.1550 c3        1 MOL      0.239162
      9 C4          3.3150   -3.0760    2.6580 c         1 MOL      0.520600
     10 O2          4.2300   -3.7000    3.2260 o         1 MOL     -0.603339
     11 C5          4.1120   -0.7070    3.0090 c3        1 MOL     -0.120045
     12 C6          4.4790   -0.4650    1.5760 c         1 MOL      0.856526
     13 O3          5.3600    0.4360    1.5290 o         1 MOL     -0.715571
     14 O4          3.9310   -1.0470    0.5860 o         1 MOL     -0.715571
     15 H4          2.9700   -1.1470    5.2480 hn        1 MOL      0.308676
     16 H5          2.1030   -1.3650    2.5330 h1        1 MOL     -0.005151
     17 H6          4.9830   -1.0810    3.5450 hc        1 MOL      0.019840
     18 H7          3.9020    0.2760    3.4220 hc        1 MOL      0.019840
     19 N2          2.6480   -3.6400    1.6070 n         1 MOL     -0.175786
     20 C7          2.6760   -5.0620    1.1230 c3        1 MOL     -0.271017
     21 C8          3.6070   -5.2380   -0.0590 c         1 MOL      0.649682
     22 O5          4.0140   -6.3930   -0.2490 o         1 MOL     -0.597691
     23 C9          1.1970   -5.4690    0.9540 c3        1 MOL      0.339373
     24 C10         0.3460   -5.3940    2.2060 c3        1 MOL      0.124134
     25 C11         1.0590   -6.7930    0.2420 c3        1 MOL     -0.590916
     26 C12        -1.1680   -5.7890    2.0940 c3        1 MOL     -0.096729
     27 H8          1.9350   -3.0630    1.1780 hn        1 MOL      0.099964
     28 H9          3.0090   -5.6990    1.9340 h1        1 MOL      0.106961
     29 H10         0.7580   -4.7170    0.3010 hc        1 MOL      0.007696
     30 H11         0.4900   -4.4480    2.7300 hc        1 MOL     -0.044858
     31 H12         0.8110   -6.0310    2.9680 hc        1 MOL     -0.044858
     32 H13        -0.0110   -6.9480    0.0980 hc        1 MOL      0.135320
     33 H14         1.4840   -6.6470   -0.7620 hc        1 MOL      0.135320
     34 H15         1.5620   -7.6150    0.7420 hc        1 MOL      0.135320
     35 H16        -1.5970   -6.0440    3.0600 hc        1 MOL      0.008565
     36 H17        -1.8110   -5.0490    1.6050 hc        1 MOL      0.008565
     37 H18        -1.2680   -6.6910    1.4820 hc        1 MOL      0.008565
     38 N3          4.0290   -4.1780   -0.7110 n         1 MOL     -0.465080
     39 C13         5.0400   -4.1910   -1.8120 c3        1 MOL      0.093318
     40 C14         6.3130   -3.3390   -1.4830 c         1 MOL      0.365725
     41 O6          7.3300   -3.4700   -2.1980 o         1 MOL     -0.519586
     42 C15         4.3670   -3.8820   -3.1320 c3        1 MOL     -0.155422
     43 C16         3.6990   -2.5020   -3.2620 c         1 MOL      0.716498
     44 O7          3.0790   -2.2180   -4.3060 o         1 MOL     -0.676160
     45 O8          3.6110   -1.7340   -2.2200 o         1 MOL     -0.676160
     46 H19         3.5650   -3.3080   -0.5060 hn        1 MOL      0.316403
     47 H20         5.2680   -5.2500   -1.8890 h1        1 MOL      0.062606
     48 H21         3.6480   -4.6730   -3.3370 hc        1 MOL      0.044466
     49 H22         5.1150   -3.9290   -3.9320 hc        1 MOL      0.044466
     50 N4          6.3190   -2.4400   -0.4870 n         1 MOL     -0.104970
     51 C17         7.4890   -1.7260   -0.0720 c3        1 MOL     -0.146761
     52 C18         7.9250   -0.5080   -0.8890 c         1 MOL      0.473055
     53 O9          9.0350   -0.3520   -1.3540 o         1 MOL     -0.574233
     54 H23         5.4930   -2.1720    0.0280 hn        1 MOL      0.081978
     55 H24         8.3800   -2.3530   -0.0080 h1        1 MOL      0.077282
     56 H25         7.2980   -1.4350    0.9670 h1        1 MOL      0.077282
     57 N5          6.9550    0.3880   -1.1180 n         1 MOL     -0.037780
     58 C19         7.1140    1.6160   -1.8870 c3        1 MOL      0.018316
     59 C20         7.0820    2.7970   -0.8740 c         1 MOL      0.416531
     60 O10         7.4520    3.9020   -1.2910 o         1 MOL     -0.584180
     61 C21         6.0350    1.9030   -3.0100 c3        1 MOL     -0.195259
     62 C22         4.5730    1.6400   -2.5300 c         1 MOL      0.764087
     63 O11         3.6550    1.4400   -3.3520 o         1 MOL     -0.735772
     64 O12         4.3620    1.6880   -1.2940 o         1 MOL     -0.735772
     65 H26         6.0340    0.2520   -0.7380 hn        1 MOL     -0.043707
     66 H27         8.1210    1.6100   -2.3160 h1        1 MOL      0.079812
     67 H28         6.2860    1.2430   -3.8410 hc        1 MOL      0.059724
     68 H29         6.0960    2.9060   -3.4290 hc        1 MOL      0.059724
     69 N6          6.7250    2.5400    0.3600 n         1 MOL     -0.302533
     70 C23         6.6280    3.5260    1.5250 c3        1 MOL     -0.022953
     71 C24         5.2810    4.1430    1.7350 c         1 MOL      0.489706
     72 O13         5.1100    5.0970    2.5230 o         1 MOL     -0.610657
     73 H30         6.4650    1.5970    0.5790 hn        1 MOL      0.221557
     74 H31         7.2260    4.4220    1.3650 h1        1 MOL      0.063185
     75 H32         6.9230    3.1420    2.5050 h1        1 MOL      0.063185
     76 N7          4.3160    3.6750    0.9470 n         1 MOL     -0.169931
     77 C25         2.9210    4.1140    1.1390 c3        1 MOL     -0.069397
     78 C26         1.9610    2.9800    1.2970 c         1 MOL      0.710656
     79 O14         2.2170    1.8170    1.0440 o         1 MOL     -0.711058
     80 C27         2.5720    5.1040   -0.0460 c3        1 MOL     -0.089517
     81 C28         3.3150    6.3820    0.1350 c3        1 MOL     -0.326104
     82 C29         2.9770    7.4090   -0.8900 c         1 MOL      0.705138
     83 N8          3.7500    7.5400   -1.9350 n         1 MOL     -0.789234
     84 O15         2.0720    8.2420   -0.7510 o         1 MOL     -0.599529
     85 H33         4.5220    2.8900    0.3470 hn        1 MOL      0.270234
     86 H34         2.8200    4.6690    2.0660 h1        1 MOL      0.081889
     87 H35         1.5110    5.3020    0.0300 hc        1 MOL      0.049889
     88 H36         2.8770    4.6460   -0.9900 hc        1 MOL      0.049889
     89 H37         4.3930    6.2460    0.1180 hc        1 MOL      0.112702
     90 H38         2.8470    6.7400    1.0480 hc        1 MOL      0.112702
     91 H39         4.4810    6.8510   -2.0030 hn        1 MOL      0.359606
     92 H40         3.4590    8.0310   -2.7680 hn        1 MOL      0.359606
     93 N9          0.7540    3.3680    1.7370 n         1 MOL     -0.581202
     94 C30        -0.4550    2.5730    2.0440 c3        1 MOL     -0.053124
     95 C31        -1.6270    3.0410    1.0790 c         1 MOL      0.464523
     96 O16        -2.1980    4.0830    1.2690 o         1 MOL     -0.571773
     97 C32        -0.8120    2.5720    3.5910 c3        1 MOL      0.444303
     98 C33        -1.8720    1.4970    3.9090 c3        1 MOL     -0.419421
     99 C34         0.3790    2.5330    4.5140 c3        1 MOL     -0.419421
    100 H41         0.6050    4.3650    1.8130 hn        1 MOL      0.337821
    101 H42        -0.2070    1.5430    1.7560 h1        1 MOL      0.172385
    102 H43        -1.2660    3.5490    3.7520 hc        1 MOL     -0.063299
    103 H44        -2.7400    1.8560    3.3540 hc        1 MOL      0.085360
    104 H45        -1.4580    0.5430    3.5820 hc        1 MOL      0.085360
    105 H46        -2.1970    1.5010    4.9560 hc        1 MOL      0.085360
    106 H47         0.7080    3.5640    4.6380 hc        1 MOL      0.085360
    107 H48        -0.0650    2.1890    5.4520 hc        1 MOL      0.085360
    108 H49         1.1780    1.9030    4.1180 hc        1 MOL      0.085360
    109 N10        -1.8880    2.2780    0.0170 n         1 MOL     -0.291655
    110 C35        -2.9510    2.4860   -1.0010 c3        1 MOL      0.266416
    111 C36        -4.2660    1.9540   -0.4100 c         1 MOL      0.369418
    112 O17        -4.2370    1.1420    0.5520 o         1 MOL     -0.373378
    113 C37        -2.6090    1.8360   -2.3670 c3        1 MOL     -0.442274
    114 C38        -3.7060    1.7040   -3.3970 c         1 MOL      0.761760
    115 N11        -4.3990    2.8070   -3.7610 n         1 MOL     -0.867665
    116 O18        -3.9680    0.6320   -3.8560 o         1 MOL     -0.507327
    117 H50        -1.3540    1.4260   -0.1120 hn        1 MOL      0.220933
    118 H51        -3.1430    3.5380   -1.1910 h1        1 MOL     -0.004220
    119 H52        -2.2780    0.8260   -2.1060 hc        1 MOL      0.139718
    120 H53        -1.8270    2.4580   -2.7940 hc        1 MOL      0.139718
    121 H54        -4.1370    3.6780   -3.3360 hn        1 MOL      0.370332
    122 H55        -5.2040    2.7020   -4.3560 hn        1 MOL      0.370332
    123 N12        -5.4590    2.4710   -0.8160 n         1 MOL     -0.528355
    124 C39        -6.7480    1.9220   -0.3530 c3        1 MOL      0.327538
    125 C40        -6.9330    0.4150   -0.5310 c         1 MOL      0.530981
    126 O19        -7.4850   -0.2970    0.2900 o         1 MOL     -0.505086
    127 C41        -7.9550    2.6480   -1.0180 c3        1 MOL     -0.275395
    128 C42        -9.2760    2.2090   -0.4110 ca        1 MOL      0.114892
    129 C43        -9.5500    2.3390    0.9480 ca        1 MOL     -0.177115
    130 C44       -10.3510    1.8520   -1.2510 ca        1 MOL     -0.177115
    131 C45       -10.7950    1.8930    1.5120 ca        1 MOL     -0.341161
    132 C46       -11.6020    1.4240   -0.7380 ca        1 MOL     -0.341161
    133 C47       -11.7700    1.3200    0.6670 ca        1 MOL      0.430124
    134 O20       -12.9050    0.7410    1.1340 oh        1 MOL     -0.520991
    135 H56        -5.3920    3.3200   -1.3400 hn        1 MOL      0.260523
    136 H57        -6.7700    2.1710    0.7010 h1        1 MOL      0.041323
    137 H58        -7.9670    2.5790   -2.1110 hc        1 MOL      0.075269
    138 H59        -7.9080    3.7180   -0.8180 hc        1 MOL      0.075269
    139 H60        -8.8550    2.7910    1.6440 ha        1 MOL      0.134266
    140 H61       -10.1260    1.6860   -2.2910 ha        1 MOL      0.134266
    141 H62       -11.0670    1.9810    2.5510 ha        1 MOL      0.162398
    142 H63       -12.3030    0.9380   -1.3930 ha        1 MOL      0.162398
    143 H64       -13.4590    0.3430    0.4580 ho        1 MOL      0.360751
    144 N13        -6.1790   -0.1500   -1.4540 n         1 MOL     -0.519016
    145 C48        -6.1800   -1.6280   -1.4770 c3        1 MOL      0.016844
    146 C49        -5.4520   -2.3280   -0.3100 c         1 MOL      0.277376
    147 O21        -5.7980   -3.4260    0.0680 o         1 MOL     -0.512036
    148 C50        -5.6760   -2.1370   -2.8640 c3        1 MOL      0.160837
    149 C51        -5.7280   -3.6410   -3.1920 c3        1 MOL     -0.354072
    150 C52        -4.9240   -3.9580   -4.4500 c         1 MOL      0.759895
    151 O22        -5.5660   -4.1350   -5.5420 o         1 MOL     -0.728499
    152 O23        -3.6690   -4.1800   -4.4900 o         1 MOL     -0.728499
    153 H65        -5.5820    0.4430   -2.0260 hn        1 MOL      0.242351
    154 H66        -7.2190   -1.9640   -1.4510 h1        1 MOL      0.101189
    155 H67        -4.6290   -1.8310   -2.9480 hc        1 MOL     -0.018100
    156 H68        -6.2100   -1.6610   -3.6870 hc        1 MOL     -0.018100
    157 H69        -6.7520   -3.9700   -3.3660 hc        1 MOL      0.058852
    158 H70        -5.2670   -4.1390   -2.3340 hc        1 MOL      0.058852
    159 N14        -4.4490   -1.6930    0.2650 n         1 MOL     -0.028629
    160 C53        -3.6650   -2.1710    1.4490 c3        1 MOL     -0.123901
    161 C54        -4.2710   -1.7200    2.7800 c         1 MOL      0.457430
    162 O24        -4.0820   -2.4170    3.7920 o         1 MOL     -0.563709
    163 C55        -2.2000   -1.6200    1.3720 c3        1 MOL      0.167514
    164 C56        -1.5160   -1.9270    0.0030 c3        1 MOL     -0.191353
    165 C57        -0.1740   -1.1810   -0.0110 c         1 MOL      0.847632
    166 O25         0.9150   -1.8050   -0.1010 o         1 MOL     -0.787747
    167 O26        -0.1950    0.0180   -0.2620 o         1 MOL     -0.787747
    168 H71        -4.2880   -0.7680   -0.1130 hn        1 MOL      0.192714
    169 H72        -3.6000   -3.2600    1.5000 h1        1 MOL      0.120315
    170 H73        -1.5750   -1.9770    2.1980 hc        1 MOL     -0.033977
    171 H74        -2.1870   -0.5480    1.5390 hc        1 MOL     -0.033977
    172 H75        -2.0440   -1.5680   -0.8860 hc        1 MOL      0.055466
    173 H76        -1.4240   -3.0060   -0.1350 hc        1 MOL      0.055466
    174 N15        -5.1250   -0.7280    2.6470 n         1 MOL     -0.013572
    175 C58        -5.9770   -0.3950    3.7510 c3        1 MOL     -0.312263
    176 H77        -6.9800   -0.1770    3.3830 h1        1 MOL      0.099374
    177 H78        -6.0210   -1.2370    4.4430 h1        1 MOL      0.099374
    178 H79        -5.5810    0.4800    4.2650 h1        1 MOL      0.099374
    179 H80        -5.2020   -0.1370    1.8290 hn        1 MOL      0.054509
    180 Ca1         2.3610    0.1820   -1.1100 Ca        1 MOL      1.807157
    181 O27         1.1450   -0.6390   -3.4030 oh        1 MOL     -0.884083
    182 H81         0.4960   -0.3700   -4.0470 ho        1 MOL      0.409292
    183 H82         1.6470   -1.3290   -3.8310 ho        1 MOL      0.409292
    184 O28         1.4940    2.6550   -2.6060 oh        1 MOL     -0.884083
    185 H83         1.4800    3.4660   -3.1260 ho        1 MOL      0.409292
    186 H84         2.1810    2.1250   -3.0140 ho        1 MOL      0.409292
@<TRIPOS>BOND
     1    1    2 1   
     2    1    4 1   
     3    1    5 1   
     4    1    6 1   
     5    2    3 2   
     6    2    7 1   
     7    7    8 1   
     8    7   15 1   
     9    8    9 1   
    10    8   11 1   
    11    8   16 1   
    12    9   10 2   
    13    9   19 1   
    14   11   12 1   
    15   11   17 1   
    16   11   18 1   
    17   12   13 1   
    18   12   14 1   
    19   19   20 1   
    20   19   27 1   
    21   20   21 1   
    22   20   23 1   
    23   20   28 1   
    24   21   22 2   
    25   21   38 1   
    26   23   24 1   
    27   23   25 1   
    28   23   29 1   
    29   24   26 1   
    30   24   30 1   
    31   24   31 1   
    32   25   32 1   
    33   25   33 1   
    34   25   34 1   
    35   26   35 1   
    36   26   36 1   
    37   26   37 1   
    38   38   39 1   
    39   38   46 1   
    40   39   40 1   
    41   39   42 1   
    42   39   47 1   
    43   40   41 2   
    44   40   50 1   
    45   42   43 1   
    46   42   48 1   
    47   42   49 1   
    48   43   44 1   
    49   43   45 1   
    50   50   51 1   
    51   50   54 1   
    52   51   52 1   
    53   51   55 1   
    54   51   56 1   
    55   52   53 2   
    56   52   57 1   
    57   57   58 1   
    58   57   65 1   
    59   58   59 1   
    60   58   61 1   
    61   58   66 1   
    62   59   60 2   
    63   59   69 1   
    64   61   62 1   
    65   61   67 1   
    66   61   68 1   
    67   62   63 1   
    68   62   64 1   
    69   69   70 1   
    70   69   73 1   
    71   70   71 1   
    72   70   74 1   
    73   70   75 1   
    74   71   72 2   
    75   71   76 1   
    76   76   77 1   
    77   76   85 1   
    78   77   78 1   
    79   77   80 1   
    80   77   86 1   
    81   78   79 2   
    82   78   93 1   
    83   80   81 1   
    84   80   87 1   
    85   80   88 1   
    86   81   82 1   
    87   81   89 1   
    88   81   90 1   
    89   82   83 1   
    90   82   84 2   
    91   83   91 1   
    92   83   92 1   
    93   93   94 1   
    94   93  100 1   
    95   94   95 1   
    96   94   97 1   
    97   94  101 1   
    98   95   96 2   
    99   95  109 1   
   100   97   98 1   
   101   97   99 1   
   102   97  102 1   
   103   98  103 1   
   104   98  104 1   
   105   98  105 1   
   106   99  106 1   
   107   99  107 1   
   108   99  108 1   
   109  109  110 1   
   110  109  117 1   
   111  110  111 1   
   112  110  113 1   
   113  110  118 1   
   114  111  112 2   
   115  111  123 1   
   116  113  114 1   
   117  113  119 1   
   118  113  120 1   
   119  114  115 1   
   120  114  116 2   
   121  115  121 1   
   122  115  122 1   
   123  123  124 1   
   124  123  135 1   
   125  124  125 1   
   126  124  127 1   
   127  124  136 1   
   128  125  126 2   
   129  125  144 1   
   130  127  128 1   
   131  127  137 1   
   132  127  138 1   
   133  128  129 ar  
   134  128  130 ar  
   135  129  131 ar  
   136  129  139 1   
   137  130  132 ar  
   138  130  140 1   
   139  131  133 ar  
   140  131  141 1   
   141  132  133 ar  
   142  132  142 1   
   143  133  134 1   
   144  134  143 1   
   145  144  145 1   
   146  144  153 1   
   147  145  146 1   
   148  145  148 1   
   149  145  154 1   
   150  146  147 2   
   151  146  159 1   
   152  148  149 1   
   153  148  155 1   
   154  148  156 1   
   155  149  150 1   
   156  149  157 1   
   157  149  158 1   
   158  150  151 1   
   159  150  152 1   
   160  159  160 1   
   161  159  168 1   
   162  160  161 1   
   163  160  163 1   
   164  160  169 1   
   165  161  162 2   
   166  161  174 1   
   167  163  164 1   
   168  163  170 1   
   169  163  171 1   
   170  164  165 1   
   171  164  172 1   
   172  164  173 1   
   173  165  166 1   
   174  165  167 1   
   175  174  175 1   
   176  174  179 1   
   177  175  176 1   
   178  175  177 1   
   179  175  178 1   
   180  181  182 1   
   181  181  183 1   
   182  184  185 1   
   183  184  186 1   
@<TRIPOS>SUBSTRUCTURE
     1 MOL         1 TEMP              0 ****  ****    0 ROOT
