@<TRIPOS>MOLECULE
MOL
  179   176     1     0     0
SMALL
resp


@<TRIPOS>ATOM
      1 C1          2.0750    2.8850    5.0020 c3        1 MOL     -0.460184
      2 C2          1.3360    2.5240    3.7110 c         1 MOL      0.830395
      3 O1          2.0740    2.2150    2.7510 o         1 MOL     -0.635377
      4 H1          2.4040    1.9720    5.5000 hc        1 MOL      0.107856
      5 H2          2.9420    3.5010    4.7650 hc        1 MOL      0.107856
      6 H3          1.4060    3.4370    5.6630 hc        1 MOL      0.107856
      7 N1          0.0490    2.7010    3.6630 n         1 MOL     -0.699524
      8 C3         -0.6900    2.4560    2.4040 c3        1 MOL      0.175146
      9 C4         -0.9090    3.7030    1.4820 c         1 MOL      0.396410
     10 O2         -1.8320    4.4600    1.7240 o         1 MOL     -0.534509
     11 C5         -1.9910    1.7810    2.8980 c3        1 MOL      0.021122
     12 C6         -2.9100    1.3590    1.6730 c         1 MOL      0.640629
     13 O3         -4.1150    1.0710    1.8600 o         1 MOL     -0.715167
     14 O4         -2.5210    1.4360    0.4910 o         1 MOL     -0.715167
     15 H4         -0.4670    2.9330    4.5040 hn        1 MOL      0.348676
     16 H5         -0.0870    1.6630    1.9440 h1        1 MOL     -0.009561
     17 H6         -2.5590    2.2870    3.6800 hc        1 MOL      0.019819
     18 H7         -1.7570    0.8320    3.3730 hc        1 MOL      0.019819
     19 N2         -0.1640    3.8270    0.3900 n         1 MOL      0.036324
     20 C7          0.1080    5.1390   -0.1780 c3        1 MOL      0.044772
     21 C8         -1.0310    5.6120   -1.0570 c         1 MOL      0.431288
     22 O5         -1.0460    6.7690   -1.4390 o         1 MOL     -0.579373
     23 C9          1.5290    5.1520   -0.8320 c3        1 MOL     -0.223119
     24 C10         2.6140    5.0030    0.3080 c3        1 MOL      0.062077
     25 C11         2.7330    6.4070    1.0530 c3        1 MOL     -0.267013
     26 C12         3.8330    6.3110    2.0940 c3        1 MOL      0.171540
     27 N3          4.0290    7.5500    2.8870 n4        1 MOL     -0.384839
     28 H8          0.4800    3.0900    0.1720 hn        1 MOL      0.130403
     29 H9          0.1860    5.8560    0.6290 h1        1 MOL      0.015039
     30 H10         1.6680    6.0710   -1.3990 hc        1 MOL      0.086879
     31 H11         1.4790    4.2700   -1.4770 hc        1 MOL      0.086879
     32 H12         3.5430    4.7450   -0.2110 hc        1 MOL      0.049063
     33 H13         2.2820    4.2400    1.0060 hc        1 MOL      0.049063
     34 H14         1.7900    6.5620    1.5700 hc        1 MOL      0.096357
     35 H15         2.9710    7.1570    0.3070 hc        1 MOL      0.096357
     36 H16         4.7570    6.0820    1.5740 hx        1 MOL      0.059209
     37 H17         3.5010    5.4460    2.6650 hx        1 MOL      0.059209
     38 H18         3.3070    7.6290    3.5810 hn        1 MOL      0.329060
     39 H19         4.9950    7.6560    3.1560 hn        1 MOL      0.329060
     40 H20         3.8490    8.3910    2.3640 hn        1 MOL      0.329060
     41 N4         -2.0420    4.8100   -1.3300 n         1 MOL     -0.116041
     42 C13        -3.2510    5.0570   -2.0630 c3        1 MOL      0.054726
     43 C14        -4.5150    4.6850   -1.2120 c         1 MOL      0.310486
     44 O6         -5.6350    5.2680   -1.4440 o         1 MOL     -0.536256
     45 C15        -3.3040    4.2700   -3.3680 c3        1 MOL     -0.242200
     46 C16        -3.1260    2.7640   -3.1930 c         1 MOL      0.766795
     47 O7         -2.8370    2.1790   -2.1220 o         1 MOL     -0.712438
     48 O8         -3.2640    2.1480   -4.2470 o         1 MOL     -0.712438
     49 H21        -1.9480    3.8340   -1.0660 hn        1 MOL      0.011317
     50 H22        -3.3240    6.1190   -2.2880 h1        1 MOL      0.094556
     51 H23        -2.6670    4.7360   -4.1210 hc        1 MOL      0.086231
     52 H24        -4.2820    4.5220   -3.7950 hc        1 MOL      0.086231
     53 N5         -4.3930    3.8230   -0.2160 n         1 MOL     -0.011813
     54 C17        -5.5340    3.4040    0.6450 c3        1 MOL     -0.017338
     55 C18        -6.2820    2.3150   -0.0490 c         1 MOL      0.456739
     56 O9         -7.5020    2.4120    0.0110 o         1 MOL     -0.539830
     57 H25        -3.5020    3.3490   -0.1490 hn        1 MOL     -0.033560
     58 H26        -6.1720    4.2380    0.9090 h1        1 MOL      0.085095
     59 H27        -5.1630    3.1640    1.6430 h1        1 MOL      0.085095
     60 N6         -5.6170    1.3710   -0.7790 n         1 MOL     -0.075392
     61 C19        -6.1720    0.1370   -1.2950 c3        1 MOL     -0.232632
     62 C20        -6.3940   -1.0250   -0.3320 c         1 MOL      0.358125
     63 O10        -7.0820   -1.9580   -0.7190 o         1 MOL     -0.473737
     64 C21        -5.5570   -0.2240   -2.6980 c3        1 MOL     -0.041996
     65 C22        -4.2790   -0.9340   -2.6750 c         1 MOL      0.704524
     66 N7         -3.6920   -1.2740   -3.8330 n         1 MOL     -0.858320
     67 O11        -3.6300   -1.1160   -1.6140 o         1 MOL     -0.552070
     68 H28        -4.6280    1.5230   -0.8330 hn        1 MOL      0.091156
     69 H29        -7.1810    0.4010   -1.6210 h1        1 MOL      0.132655
     70 H30        -5.4520    0.6710   -3.3140 hc        1 MOL      0.065575
     71 H31        -6.2200   -0.8810   -3.2570 hc        1 MOL      0.065575
     72 H32        -4.0590   -0.9350   -4.7170 hn        1 MOL      0.374684
     73 H33        -2.8460   -1.8270   -3.8820 hn        1 MOL      0.374684
     74 N8         -5.8600   -0.8700    0.8410 n         1 MOL     -0.070924
     75 C23        -6.0570   -1.7700    2.0220 c3        1 MOL     -0.362172
     76 C24        -4.7940   -2.6230    2.2940 c         1 MOL      0.702669
     77 O12        -4.8970   -3.5330    3.1350 o         1 MOL     -0.582744
     78 H34        -5.2530   -0.0750    1.0310 hn        1 MOL      0.238104
     79 H35        -6.8630   -2.4680    1.7850 h1        1 MOL      0.162015
     80 H36        -6.3050   -1.2920    2.9610 h1        1 MOL      0.162015
     81 N9         -3.6940   -2.4150    1.5630 n         1 MOL     -0.503282
     82 C25        -2.4810   -3.2650    1.5690 c3        1 MOL      0.008448
     83 C26        -1.1250   -2.5850    1.3630 c         1 MOL      0.780678
     84 O13        -0.9670   -1.7190    0.5350 o         1 MOL     -0.698054
     85 C27        -2.6360   -4.3300    0.4280 c3        1 MOL      0.056301
     86 C28        -3.8860   -5.0950    0.4210 ca        1 MOL     -0.102214
     87 C29        -5.0050   -4.5860   -0.2250 ca        1 MOL     -0.017003
     88 C30        -3.9920   -6.3100    1.0690 ca        1 MOL     -0.017003
     89 C31        -6.2110   -5.2720   -0.1920 ca        1 MOL     -0.367387
     90 C32        -5.1550   -7.1050    0.8380 ca        1 MOL     -0.367387
     91 C33        -6.2790   -6.5170    0.3690 ca        1 MOL      0.480506
     92 O14        -7.4340   -7.1770    0.2060 oh        1 MOL     -0.471141
     93 H37        -3.6540   -1.7250    0.8240 hn        1 MOL      0.266979
     94 H38        -2.4230   -3.7280    2.5560 h1        1 MOL      0.061077
     95 H39        -1.8800   -5.1070    0.4900 hc        1 MOL      0.000184
     96 H40        -2.4890   -3.7630   -0.4910 hc        1 MOL      0.000184
     97 H41        -5.0500   -3.5720   -0.5820 ha        1 MOL      0.083788
     98 H42        -3.1110   -6.7530    1.4980 ha        1 MOL      0.083788
     99 H43        -7.0870   -4.8320   -0.6560 ha        1 MOL      0.147120
    100 H44        -5.1750   -8.0930    1.2900 ha        1 MOL      0.147120
    101 H45        -7.2980   -8.0730    0.5320 ho        1 MOL      0.326070
    102 N10        -0.1350   -2.9250    2.1870 n         1 MOL     -0.703214
    103 C34         1.3030   -2.6460    2.0280 c3        1 MOL      0.268509
    104 C35         1.9380   -3.6280    1.0240 c         1 MOL      0.312050
    105 O15         1.8600   -4.8520    1.2880 o         1 MOL     -0.514651
    106 C36         1.9720   -2.5870    3.4010 c3        1 MOL      0.093000
    107 C37         1.1810   -1.5560    4.3290 c3        1 MOL      0.168654
    108 C38         3.4470   -2.1580    3.2920 c3        1 MOL     -0.277697
    109 C39         1.5140   -1.6520    5.8280 c3        1 MOL     -0.147827
    110 H46        -0.3720   -3.6360    2.8780 hn        1 MOL      0.326701
    111 H47         1.3640   -1.6770    1.5240 h1        1 MOL      0.078867
    112 H48         1.8100   -3.5260    3.9040 hc        1 MOL      0.007783
    113 H49         0.1120   -1.7470    4.3230 hc        1 MOL     -0.036229
    114 H50         1.3700   -0.5760    3.9160 hc        1 MOL     -0.036229
    115 H51         3.9500   -1.9520    4.2380 hc        1 MOL      0.058177
    116 H52         4.1540   -2.8940    2.9110 hc        1 MOL      0.058177
    117 H53         3.6180   -1.3290    2.6130 hc        1 MOL      0.058177
    118 H54         2.5790   -1.4830    5.9830 hc        1 MOL      0.033656
    119 H55         0.8920   -0.9210    6.3420 hc        1 MOL      0.033656
    120 H56         1.2330   -2.5840    6.3080 hc        1 MOL      0.033656
    121 N11         2.6210   -3.1210   -0.0280 n         1 MOL     -0.047544
    122 C40         3.5210   -3.8300   -0.9250 c3        1 MOL     -0.032181
    123 C41         4.9670   -3.4940   -0.6790 c         1 MOL      0.427119
    124 O16         5.3010   -2.5470    0.0290 o         1 MOL     -0.444735
    125 C42         3.1460   -3.5710   -2.4300 c3        1 MOL      0.012614
    126 O17         3.0780   -2.1660   -2.7140 oh        1 MOL     -0.572024
    127 H57         2.6210   -2.1180   -0.1640 hn        1 MOL      0.071352
    128 H58         3.4920   -4.9120   -0.9010 h1        1 MOL      0.063907
    129 H59         2.2200   -4.0960   -2.6770 h1        1 MOL      0.060027
    130 H60         3.9830   -3.9610   -2.9980 h1        1 MOL      0.060027
    131 H61         2.3430   -1.7430   -2.2580 ho        1 MOL      0.417491
    132 N12         5.9150   -4.2180   -1.2470 n         1 MOL     -0.375212
    133 C43         7.3720   -3.9670   -1.1590 c3        1 MOL      0.080365
    134 C44         7.7440   -2.5310   -1.5520 c         1 MOL      0.451776
    135 O18         8.6450   -2.0400   -0.8800 o         1 MOL     -0.515552
    136 C45         8.0480   -4.8300   -2.2090 c3        1 MOL     -0.326338
    137 H62         5.5850   -5.0550   -1.7070 hn        1 MOL      0.265690
    138 H63         7.7120   -4.2590   -0.1660 h1        1 MOL      0.104586
    139 H64         9.1300   -4.6870   -2.2100 hc        1 MOL      0.099694
    140 H65         7.8990   -5.8670   -1.8910 hc        1 MOL      0.099694
    141 H66         7.7140   -4.6830   -3.2340 hc        1 MOL      0.099694
    142 N13         7.0810   -1.9280   -2.5670 n         1 MOL     -0.280566
    143 C46         7.3170   -0.5990   -3.0740 c3        1 MOL     -0.031113
    144 C47         6.8740    0.3950   -1.9460 c         1 MOL      0.342629
    145 O19         7.5420    1.4240   -1.8320 o         1 MOL     -0.499216
    146 C48         6.4660   -0.4720   -4.2890 c3        1 MOL     -0.111893
    147 H67         6.3750   -2.3700   -3.1390 hn        1 MOL      0.254746
    148 H68         8.3470   -0.6830   -3.4150 h1        1 MOL      0.116235
    149 H69         6.6710   -1.2120   -5.0570 hc        1 MOL      0.042752
    150 H70         5.4010   -0.4110   -4.0520 hc        1 MOL      0.042752
    151 H71         6.7200    0.4940   -4.7180 hc        1 MOL      0.042752
    152 N14         5.8030    0.1760   -1.1730 n         1 MOL      0.067282
    153 C49         5.3600    0.9530   -0.0850 c3        1 MOL     -0.398222
    154 C50         6.3300    0.8320    1.1360 c         1 MOL      0.626373
    155 O20         6.5970    1.8350    1.7940 o         1 MOL     -0.595593
    156 C51         3.9000    0.6260    0.0800 c3        1 MOL      0.066753
    157 C52         3.1250    1.0910   -1.2090 c3        1 MOL     -0.159197
    158 C53         1.6350    0.6230   -1.1710 c         1 MOL      0.808839
    159 O21         0.7860    1.4980   -0.8680 o         1 MOL     -0.760896
    160 O22         1.3100   -0.4360   -1.6300 o         1 MOL     -0.760896
    161 H72         5.2560   -0.6670   -1.2880 hn        1 MOL      0.123972
    162 H73         5.4040    1.9850   -0.4340 h1        1 MOL      0.137292
    163 H74         3.5170    1.0720    1.0010 hc        1 MOL      0.025144
    164 H75         3.7950   -0.4330    0.3340 hc        1 MOL      0.025144
    165 H76         3.4460    0.6180   -2.1280 hc        1 MOL      0.034627
    166 H77         3.0870    2.1760   -1.3080 hc        1 MOL      0.034627
    167 N15         6.8910   -0.3540    1.4330 n         1 MOL     -0.192883
    168 C54         8.0180   -0.4710    2.4050 c3        1 MOL     -0.282286
    169 H78         7.7840   -1.2400    3.1400 h1        1 MOL      0.116959
    170 H79         8.9300   -0.7430    1.8730 h1        1 MOL      0.116959
    171 H80         8.1630    0.4840    2.9110 h1        1 MOL      0.116959
    172 H81         6.6150   -1.1960    0.9530 hn        1 MOL      0.200015
    173 Ca1        -1.3730    0.1210   -1.4900 Ca        1 MOL      1.754818
    174 O23        -0.8520   -2.2210   -2.5940 oh        1 MOL     -0.854807
    175 H82        -0.4380   -2.9560   -2.1540 ho        1 MOL      0.414943
    176 H83        -0.8530   -2.4730   -3.5270 ho        1 MOL      0.414943
    177 O24        -0.8150    0.6850   -3.9590 oh        1 MOL     -0.854807
    178 H84        -1.3350    1.1580   -4.6110 ho        1 MOL      0.414943
    179 H85        -0.1840    0.1780   -4.4790 ho        1 MOL      0.414943
@<TRIPOS>BOND
     1    1    2 1   
     2    1    4 1   
     3    1    5 1   
     4    1    6 1   
     5    2    3 2   
     6    2    7 1   
     7    7    8 1   
     8    7   15 1   
     9    8    9 1   
    10    8   11 1   
    11    8   16 1   
    12    9   10 2   
    13    9   19 1   
    14   11   12 1   
    15   11   17 1   
    16   11   18 1   
    17   12   13 1   
    18   12   14 1   
    19   19   20 1   
    20   19   28 1   
    21   20   21 1   
    22   20   23 1   
    23   20   29 1   
    24   21   22 2   
    25   21   41 1   
    26   23   24 1   
    27   23   30 1   
    28   23   31 1   
    29   24   25 1   
    30   24   32 1   
    31   24   33 1   
    32   25   26 1   
    33   25   34 1   
    34   25   35 1   
    35   26   27 1   
    36   26   36 1   
    37   26   37 1   
    38   27   38 1   
    39   27   39 1   
    40   27   40 1   
    41   41   42 1   
    42   41   49 1   
    43   42   43 1   
    44   42   45 1   
    45   42   50 1   
    46   43   44 2   
    47   43   53 1   
    48   45   46 1   
    49   45   51 1   
    50   45   52 1   
    51   46   47 1   
    52   46   48 1   
    53   53   54 1   
    54   53   57 1   
    55   54   55 1   
    56   54   58 1   
    57   54   59 1   
    58   55   56 2   
    59   55   60 1   
    60   60   61 1   
    61   60   68 1   
    62   61   62 1   
    63   61   64 1   
    64   61   69 1   
    65   62   63 2   
    66   62   74 1   
    67   64   65 1   
    68   64   70 1   
    69   64   71 1   
    70   65   66 1   
    71   65   67 2   
    72   66   72 1   
    73   66   73 1   
    74   74   75 1   
    75   74   78 1   
    76   75   76 1   
    77   75   79 1   
    78   75   80 1   
    79   76   77 2   
    80   76   81 1   
    81   81   82 1   
    82   81   93 1   
    83   82   83 1   
    84   82   85 1   
    85   82   94 1   
    86   83   84 2   
    87   83  102 1   
    88   85   86 1   
    89   85   95 1   
    90   85   96 1   
    91   86   87 ar  
    92   86   88 ar  
    93   87   89 ar  
    94   87   97 1   
    95   88   90 ar  
    96   88   98 1   
    97   89   91 ar  
    98   89   99 1   
    99   90   91 ar  
   100   90  100 1   
   101   91   92 1   
   102   92  101 1   
   103  102  103 1   
   104  102  110 1   
   105  103  104 1   
   106  103  106 1   
   107  103  111 1   
   108  104  105 2   
   109  104  121 1   
   110  106  107 1   
   111  106  108 1   
   112  106  112 1   
   113  107  109 1   
   114  107  113 1   
   115  107  114 1   
   116  108  115 1   
   117  108  116 1   
   118  108  117 1   
   119  109  118 1   
   120  109  119 1   
   121  109  120 1   
   122  121  122 1   
   123  121  127 1   
   124  122  123 1   
   125  122  125 1   
   126  122  128 1   
   127  123  124 2   
   128  123  132 1   
   129  125  126 1   
   130  125  129 1   
   131  125  130 1   
   132  126  131 1   
   133  132  133 1   
   134  132  137 1   
   135  133  134 1   
   136  133  136 1   
   137  133  138 1   
   138  134  135 2   
   139  134  142 1   
   140  136  139 1   
   141  136  140 1   
   142  136  141 1   
   143  142  143 1   
   144  142  147 1   
   145  143  144 1   
   146  143  146 1   
   147  143  148 1   
   148  144  145 2   
   149  144  152 1   
   150  146  149 1   
   151  146  150 1   
   152  146  151 1   
   153  152  153 1   
   154  152  161 1   
   155  153  154 1   
   156  153  156 1   
   157  153  162 1   
   158  154  155 2   
   159  154  167 1   
   160  156  157 1   
   161  156  163 1   
   162  156  164 1   
   163  157  158 1   
   164  157  165 1   
   165  157  166 1   
   166  158  159 1   
   167  158  160 1   
   168  167  168 1   
   169  167  172 1   
   170  168  169 1   
   171  168  170 1   
   172  168  171 1   
   173  174  175 1   
   174  174  176 1   
   175  177  178 1   
   176  177  179 1   
@<TRIPOS>SUBSTRUCTURE
     1 MOL         1 TEMP              0 ****  ****    0 ROOT
