@<TRIPOS>MOLECULE
MOL
  176   174     1     0     0
SMALL
resp


@<TRIPOS>ATOM
      1 C1          1.1290   -5.3740    5.2960 c3        1 MOL     -0.351008
      2 C2          1.2790   -4.8040    3.8300 c         1 MOL      0.675792
      3 O1          0.5800   -5.2200    2.9100 o         1 MOL     -0.556067
      4 H1          1.0700   -4.5470    6.0030 hc        1 MOL      0.092815
      5 H2          0.2220   -5.9750    5.3620 hc        1 MOL      0.092815
      6 H3          1.9940   -5.9940    5.5350 hc        1 MOL      0.092815
      7 N1          2.3060   -3.9660    3.5770 n         1 MOL     -0.662666
      8 C3          2.5350   -3.3530    2.2330 c3        1 MOL      0.175770
      9 C4          3.9090   -3.7020    1.6250 c         1 MOL      0.460301
     10 O2          4.8550   -3.7930    2.3880 o         1 MOL     -0.536897
     11 C5          2.3740   -1.8180    2.4690 c3        1 MOL      0.043399
     12 C6          1.6540   -1.0970    1.3100 c         1 MOL      0.408784
     13 O3          0.8310   -1.6950    0.5480 o         1 MOL     -0.674957
     14 O4          1.8590    0.1500    1.1540 o         1 MOL     -0.674957
     15 H4          2.9350   -3.7260    4.3290 hn        1 MOL      0.321965
     16 H5          1.6880   -3.6500    1.6040 h1        1 MOL      0.072546
     17 H6          3.3190   -1.3550    2.7410 hc        1 MOL      0.024992
     18 H7          1.8870   -1.6960    3.4360 hc        1 MOL      0.024992
     19 N2          4.0160   -3.7200    0.3020 n         1 MOL     -0.338810
     20 C7          5.3250   -4.2370   -0.2490 c3        1 MOL     -0.121685
     21 C8          5.7650   -3.5000   -1.5210 c         1 MOL      0.495182
     22 O5          6.7050   -3.8510   -2.1700 o         1 MOL     -0.574988
     23 C9          5.3610   -5.7680   -0.4710 c3        1 MOL     -0.074745
     24 C10         5.0260   -6.5410    0.8290 c3        1 MOL     -0.224122
     25 C11         5.1430   -8.1070    0.6810 c3        1 MOL     -0.007286
     26 C12         6.6210   -8.5530    0.5840 c3        1 MOL      0.100146
     27 N3          6.9360   -9.9950    0.6740 n4        1 MOL     -0.372116
     28 H8          3.1880   -3.6250   -0.2700 hn        1 MOL      0.290960
     29 H9          6.1050   -4.0420    0.4930 h1        1 MOL      0.131905
     30 H10         6.3240   -6.0630   -0.8870 hc        1 MOL      0.072852
     31 H11         4.7430   -6.0160   -1.3390 hc        1 MOL      0.072852
     32 H12         3.9690   -6.2960    0.9470 hc        1 MOL      0.121838
     33 H13         5.5850   -6.2570    1.7190 hc        1 MOL      0.121838
     34 H14         4.5520   -8.5560   -0.1200 hc        1 MOL      0.035789
     35 H15         4.8690   -8.5310    1.6470 hc        1 MOL      0.035789
     36 H16         7.1710   -8.0580    1.3840 hx        1 MOL      0.060397
     37 H17         6.9390   -8.2220   -0.3980 hx        1 MOL      0.060397
     38 H18         6.4700  -10.5780   -0.0110 hn        1 MOL      0.328951
     39 H19         7.9110  -10.1410    0.4360 hn        1 MOL      0.328951
     40 H20         6.6380  -10.3730    1.5630 hn        1 MOL      0.328951
     41 N4          5.0290   -2.5130   -1.9840 n         1 MOL     -0.133197
     42 C13         5.2700   -1.6520   -3.1430 c3        1 MOL     -0.349256
     43 C14         6.1490   -0.4390   -2.8730 c         1 MOL      0.529953
     44 O6          6.3760    0.4320   -3.6720 o         1 MOL     -0.519960
     45 C15         3.8870   -1.2900   -3.7640 c3        1 MOL     -0.022949
     46 C16         2.8520   -0.6370   -2.8840 c         1 MOL      0.784049
     47 O7          1.8470   -0.3370   -3.4870 o         1 MOL     -0.730861
     48 O8          2.9720   -0.5870   -1.6320 o         1 MOL     -0.730861
     49 H21         4.2370   -2.3110   -1.3840 hn        1 MOL      0.127889
     50 H22         5.7410   -2.3210   -3.8660 h1        1 MOL      0.181614
     51 H23         3.5010   -2.2210   -4.1850 hc        1 MOL      0.041450
     52 H24         3.9890   -0.6700   -4.6570 hc        1 MOL      0.041450
     53 N5          6.5460   -0.3160   -1.6360 n         1 MOL     -0.181630
     54 C17         7.4830    0.7400   -1.1900 c3        1 MOL     -0.454162
     55 C18         6.8930    2.1180   -1.1080 c         1 MOL      0.593296
     56 O9          7.5750    3.0870   -0.8920 o         1 MOL     -0.564949
     57 H25         6.2560   -1.0450   -1.0140 hn        1 MOL      0.230342
     58 H26         8.2760    0.7140   -1.9400 h1        1 MOL      0.188893
     59 H27         7.7600    0.6160   -0.1400 h1        1 MOL      0.188893
     60 N6          5.5820    2.2980   -1.2400 n         1 MOL     -0.166463
     61 C19         4.9650    3.6730   -1.5360 c3        1 MOL     -0.013233
     62 C20         4.5130    4.4970   -0.3290 c         1 MOL      0.302718
     63 O10         4.3730    5.7500   -0.3590 o         1 MOL     -0.427536
     64 C21         3.9250    3.6290   -2.6100 c3        1 MOL     -0.213382
     65 C22         2.5380    3.1960   -2.1160 c         1 MOL      0.563024
     66 N7          1.5150    3.9070   -2.5150 n         1 MOL     -0.629566
     67 O11         2.3750    2.2910   -1.3520 o         1 MOL     -0.548900
     68 H28         4.9780    1.5040   -1.3380 hn        1 MOL      0.140556
     69 H29         5.7790    4.3460   -1.7980 h1        1 MOL      0.127944
     70 H30         4.2440    2.9810   -3.4290 hc        1 MOL      0.088309
     71 H31         3.8660    4.6700   -2.9350 hc        1 MOL      0.088309
     72 H32         1.6080    4.6300   -3.2030 hn        1 MOL      0.321809
     73 H33         0.5880    3.5720   -2.3280 hn        1 MOL      0.321809
     74 N8          4.5080    3.8130    0.8010 n         1 MOL     -0.209772
     75 C23         4.1330    4.3870    2.1080 c3        1 MOL     -0.158237
     76 C24         2.6100    4.5440    2.3470 c         1 MOL      0.621847
     77 O12         2.2220    5.1330    3.3560 o         1 MOL     -0.574321
     78 H34         4.7520    2.8390    0.7720 hn        1 MOL      0.214505
     79 H35         4.6060    5.3500    2.3210 h1        1 MOL      0.109926
     80 H36         4.4990    3.7910    2.9490 h1        1 MOL      0.109926
     81 N9          1.7740    3.9520    1.5070 n         1 MOL     -0.480735
     82 C25         0.3050    4.0330    1.7200 c3        1 MOL      0.246255
     83 C26        -0.5590    2.8310    1.3580 c         1 MOL      0.404349
     84 O13        -0.3550    2.2570    0.2820 o         1 MOL     -0.432238
     85 C27        -0.2410    5.1320    0.8470 c3        1 MOL      0.014847
     86 C28         0.3740    6.5170    0.9860 ca        1 MOL      0.137522
     87 C29         1.3250    6.9750    0.0970 ca        1 MOL     -0.267322
     88 C30        -0.1050    7.4160    1.9680 ca        1 MOL     -0.267322
     89 C31         1.8570    8.2430    0.1200 ca        1 MOL     -0.174064
     90 C32         0.5120    8.6920    2.0910 ca        1 MOL     -0.174064
     91 C33         1.5040    9.1240    1.1610 ca        1 MOL      0.267866
     92 O14         2.1370   10.3210    1.4460 oh        1 MOL     -0.461223
     93 H37         2.1800    3.3740    0.7860 hn        1 MOL      0.234405
     94 H38        -0.0210    4.2080    2.7380 h1        1 MOL      0.022600
     95 H39        -1.3080    5.1780    1.0590 hc        1 MOL     -0.001069
     96 H40        -0.3260    4.8870   -0.2170 hc        1 MOL     -0.001069
     97 H41         1.6390    6.3260   -0.7080 ha        1 MOL      0.141876
     98 H42        -0.8330    6.9430    2.6110 ha        1 MOL      0.141876
     99 H43         2.7250    8.4630   -0.4930 ha        1 MOL      0.129788
    100 H44         0.1810    9.3950    2.8360 ha        1 MOL      0.129788
    101 H45         1.7340   10.6010    2.2710 ho        1 MOL      0.339235
    102 N10        -1.4390    2.3460    2.2290 n         1 MOL     -0.489021
    103 C34        -2.3530    1.3010    1.9530 c3        1 MOL     -0.057662
    104 C35        -3.6720    1.9260    1.4670 c         1 MOL      0.713129
    105 O15        -4.2940    2.7400    2.1270 o         1 MOL     -0.586264
    106 C36        -2.5040    0.3130    3.1590 c3        1 MOL     -0.009290
    107 C37        -1.3460   -0.7100    2.8210 c3        1 MOL      0.040587
    108 C38        -3.8780   -0.3020    3.2590 c3        1 MOL      0.123711
    109 C39        -0.8990   -1.5340    4.0170 c3        1 MOL     -0.280538
    110 H46        -1.6260    2.8680    3.0780 hn        1 MOL      0.320499
    111 H47        -1.9720    0.7280    1.1140 h1        1 MOL     -0.006551
    112 H48        -2.2330    0.7870    4.1030 hc        1 MOL      0.026588
    113 H49        -0.4870   -0.1550    2.4370 hc        1 MOL      0.095674
    114 H50        -1.7270   -1.3020    1.9900 hc        1 MOL      0.095674
    115 H51        -3.9650   -0.7570    4.2420 hc        1 MOL     -0.027180
    116 H52        -4.6780    0.4270    3.3930 hc        1 MOL     -0.027180
    117 H53        -4.0650   -1.1010    2.5450 hc        1 MOL     -0.027180
    118 H54        -0.4740   -2.4180    3.5450 hc        1 MOL      0.062818
    119 H55        -0.2140   -1.1040    4.7410 hc        1 MOL      0.062818
    120 H56        -1.8140   -1.8720    4.5110 hc        1 MOL      0.062818
    121 N11        -4.1230    1.4700    0.2560 n         1 MOL     -0.529003
    122 C40        -5.4180    1.7940   -0.4670 c3        1 MOL      0.229414
    123 C41        -6.5680    0.8940   -0.0480 c         1 MOL      0.353883
    124 O16        -6.3590   -0.1160    0.6050 o         1 MOL     -0.328789
    125 C42        -5.2020    1.5940   -1.9940 c3        1 MOL     -0.073325
    126 O17        -5.5250    0.2460   -2.4270 oh        1 MOL     -0.315818
    127 H57        -3.5590    0.7250   -0.1200 hn        1 MOL      0.184931
    128 H58        -5.7480    2.8140   -0.2830 h1        1 MOL      0.045569
    129 H59        -4.1880    1.8530   -2.2790 h1        1 MOL      0.049326
    130 H60        -5.8170    2.3420   -2.5050 h1        1 MOL      0.049326
    131 H61        -5.5000    0.2170   -3.3900 ho        1 MOL      0.358564
    132 N12        -7.7760    1.3600   -0.2770 n         1 MOL     -0.409639
    133 C43        -8.9520    0.5720    0.0170 c3        1 MOL      0.176216
    134 C44        -8.9250   -0.8140   -0.7510 c         1 MOL      0.440244
    135 O18        -9.1240   -1.8460   -0.1400 o         1 MOL     -0.497427
    136 C45       -10.2640    1.2780   -0.2390 c3        1 MOL     -0.081133
    137 H62        -7.9470    2.1780   -0.8360 hn        1 MOL      0.274045
    138 H63        -9.0560    0.3930    1.0830 h1        1 MOL      0.069071
    139 H64       -10.1500    2.3320   -0.0080 hc        1 MOL      0.025708
    140 H65       -10.5430    1.0770   -1.2760 hc        1 MOL      0.025708
    141 H66       -11.0930    0.9930    0.4170 hc        1 MOL      0.025708
    142 N13        -8.7980   -0.9050   -2.0880 n         1 MOL     -0.319526
    143 C46        -8.5120   -2.2290   -2.7450 c3        1 MOL      0.007358
    144 C47        -7.3880   -3.0330   -2.0860 c         1 MOL      0.450153
    145 O19        -7.3020   -4.2300   -2.2970 o         1 MOL     -0.526637
    146 C48        -8.2560   -1.9870   -4.2190 c3        1 MOL     -0.326426
    147 H67        -8.4060   -0.0900   -2.5540 hn        1 MOL      0.217159
    148 H68        -9.4500   -2.7220   -2.5130 h1        1 MOL      0.121222
    149 H69        -8.2660   -2.9370   -4.7510 hc        1 MOL      0.104762
    150 H70        -9.0020   -1.3260   -4.6430 hc        1 MOL      0.104762
    151 H71        -7.2600   -1.5920   -4.3890 hc        1 MOL      0.104762
    152 N14        -6.3860   -2.3840   -1.4730 n         1 MOL      0.075703
    153 C49        -5.2360   -3.1010   -0.7330 c3        1 MOL     -0.194260
    154 C50        -5.6300   -3.5580    0.6170 c         1 MOL      0.447961
    155 O20        -5.3390   -4.7030    1.0030 o         1 MOL     -0.546253
    156 C51        -3.9650   -2.2660   -0.6480 c3        1 MOL      0.109375
    157 C52        -3.1180   -2.1530   -1.9330 c3        1 MOL      0.051315
    158 C53        -1.8830   -1.2520   -1.8020 c         1 MOL      0.655393
    159 O21        -1.9130   -0.2340   -1.0840 o         1 MOL     -0.730182
    160 O22        -0.7360   -1.5820   -2.3140 o         1 MOL     -0.730182
    161 H72        -6.4040   -1.3770   -1.4110 hn        1 MOL     -0.306284
    162 H73        -5.1060   -4.0240   -1.3100 h1        1 MOL      0.128503
    163 H74        -3.2600   -2.6240    0.1120 hc        1 MOL      0.019966
    164 H75        -4.1630   -1.2490   -0.3200 hc        1 MOL      0.019966
    165 H76        -3.6600   -1.6700   -2.7390 hc        1 MOL     -0.030694
    166 H77        -2.7690   -3.1040   -2.3370 hc        1 MOL     -0.030694
    167 N15        -6.4770   -2.7850    1.3620 n         1 MOL      0.009190
    168 C54        -6.9970   -3.1800    2.6130 c3        1 MOL     -0.192945
    169 H78        -6.9720   -2.3330    3.2990 h1        1 MOL      0.068290
    170 H79        -8.0260   -3.5170    2.4890 h1        1 MOL      0.068290
    171 H80        -6.3940   -3.9930    3.0170 h1        1 MOL      0.068290
    172 H81        -6.7610   -1.8890    0.9670 hn        1 MOL      0.067806
    173 Ca1         0.6030    0.2980   -1.1250 Ca        1 MOL      1.720017
    174 O23        -1.1050    2.3090   -2.6590 oh        1 MOL     -0.826159
    175 H82        -1.8490    2.7590   -2.2550 ho        1 MOL      0.414957
    176 H83        -1.4830    1.8710   -3.4250 ho        1 MOL      0.414957
@<TRIPOS>BOND
     1    1    2 1   
     2    1    4 1   
     3    1    5 1   
     4    1    6 1   
     5    2    3 2   
     6    2    7 1   
     7    7    8 1   
     8    7   15 1   
     9    8    9 1   
    10    8   11 1   
    11    8   16 1   
    12    9   10 2   
    13    9   19 1   
    14   11   12 1   
    15   11   17 1   
    16   11   18 1   
    17   12   13 1   
    18   12   14 1   
    19   19   20 1   
    20   19   28 1   
    21   20   21 1   
    22   20   23 1   
    23   20   29 1   
    24   21   22 2   
    25   21   41 1   
    26   23   24 1   
    27   23   30 1   
    28   23   31 1   
    29   24   25 1   
    30   24   32 1   
    31   24   33 1   
    32   25   26 1   
    33   25   34 1   
    34   25   35 1   
    35   26   27 1   
    36   26   36 1   
    37   26   37 1   
    38   27   38 1   
    39   27   39 1   
    40   27   40 1   
    41   41   42 1   
    42   41   49 1   
    43   42   43 1   
    44   42   45 1   
    45   42   50 1   
    46   43   44 2   
    47   43   53 1   
    48   45   46 1   
    49   45   51 1   
    50   45   52 1   
    51   46   47 1   
    52   46   48 1   
    53   53   54 1   
    54   53   57 1   
    55   54   55 1   
    56   54   58 1   
    57   54   59 1   
    58   55   56 2   
    59   55   60 1   
    60   60   61 1   
    61   60   68 1   
    62   61   62 1   
    63   61   64 1   
    64   61   69 1   
    65   62   63 2   
    66   62   74 1   
    67   64   65 1   
    68   64   70 1   
    69   64   71 1   
    70   65   66 1   
    71   65   67 2   
    72   66   72 1   
    73   66   73 1   
    74   74   75 1   
    75   74   78 1   
    76   75   76 1   
    77   75   79 1   
    78   75   80 1   
    79   76   77 2   
    80   76   81 1   
    81   81   82 1   
    82   81   93 1   
    83   82   83 1   
    84   82   85 1   
    85   82   94 1   
    86   83   84 2   
    87   83  102 1   
    88   85   86 1   
    89   85   95 1   
    90   85   96 1   
    91   86   87 ar  
    92   86   88 ar  
    93   87   89 ar  
    94   87   97 1   
    95   88   90 ar  
    96   88   98 1   
    97   89   91 ar  
    98   89   99 1   
    99   90   91 ar  
   100   90  100 1   
   101   91   92 1   
   102   92  101 1   
   103  102  103 1   
   104  102  110 1   
   105  103  104 1   
   106  103  106 1   
   107  103  111 1   
   108  104  105 2   
   109  104  121 1   
   110  106  107 1   
   111  106  108 1   
   112  106  112 1   
   113  107  109 1   
   114  107  113 1   
   115  107  114 1   
   116  108  115 1   
   117  108  116 1   
   118  108  117 1   
   119  109  118 1   
   120  109  119 1   
   121  109  120 1   
   122  121  122 1   
   123  121  127 1   
   124  122  123 1   
   125  122  125 1   
   126  122  128 1   
   127  123  124 2   
   128  123  132 1   
   129  125  126 1   
   130  125  129 1   
   131  125  130 1   
   132  126  131 1   
   133  132  133 1   
   134  132  137 1   
   135  133  134 1   
   136  133  136 1   
   137  133  138 1   
   138  134  135 2   
   139  134  142 1   
   140  136  139 1   
   141  136  140 1   
   142  136  141 1   
   143  142  143 1   
   144  142  147 1   
   145  143  144 1   
   146  143  146 1   
   147  143  148 1   
   148  144  145 2   
   149  144  152 1   
   150  146  149 1   
   151  146  150 1   
   152  146  151 1   
   153  152  153 1   
   154  152  161 1   
   155  153  154 1   
   156  153  156 1   
   157  153  162 1   
   158  154  155 2   
   159  154  167 1   
   160  156  157 1   
   161  156  163 1   
   162  156  164 1   
   163  157  158 1   
   164  157  165 1   
   165  157  166 1   
   166  158  159 1   
   167  158  160 1   
   168  167  168 1   
   169  167  172 1   
   170  168  169 1   
   171  168  170 1   
   172  168  171 1   
   173  174  175 1   
   174  174  176 1   
@<TRIPOS>SUBSTRUCTURE
     1 MOL         1 TEMP              0 ****  ****    0 ROOT
