@<TRIPOS>MOLECULE
MOL
  189   185     1     0     0
SMALL
resp


@<TRIPOS>ATOM
      1 C1         -0.9250    3.6680    6.1100 c3        1 MOL     -0.542061
      2 C2         -1.0130    3.2300    4.6050 c         1 MOL      0.807193
      3 O1         -0.8350    2.0970    4.2540 o         1 MOL     -0.604781
      4 H1         -1.7340    4.3640    6.3320 hc        1 MOL      0.137399
      5 H2         -1.0150    2.7900    6.7500 hc        1 MOL      0.137399
      6 H3          0.0330    4.1540    6.2910 hc        1 MOL      0.137399
      7 N1         -1.4400    4.2330    3.8090 n         1 MOL     -0.745508
      8 C3         -1.9570    4.0340    2.4490 c3        1 MOL      0.374796
      9 C4         -1.6590    5.0760    1.4480 c         1 MOL      0.436789
     10 O2         -1.7040    6.2580    1.8250 o         1 MOL     -0.605136
     11 C5         -3.5060    3.7880    2.4930 c3        1 MOL     -0.288154
     12 C6         -4.0580    3.1070    1.2530 c         1 MOL      0.690550
     13 O3         -3.2790    2.5690    0.3910 o         1 MOL     -0.660857
     14 O4         -5.3070    3.0030    1.1880 o         1 MOL     -0.660857
     15 H4         -1.6220    5.1590    4.1700 hn        1 MOL      0.335899
     16 H5         -1.3720    3.2030    2.0680 h1        1 MOL      0.049132
     17 H6         -3.9320    4.7680    2.6730 hc        1 MOL      0.065105
     18 H7         -3.6980    3.1440    3.3520 hc        1 MOL      0.065105
     19 N2         -1.3920    4.6400    0.2300 n         1 MOL     -0.189983
     20 C7         -1.2400    5.5360   -0.9360 c3        1 MOL     -0.135570
     21 C8         -2.2560    5.0850   -2.0680 c         1 MOL      0.659457
     22 O5         -2.6340    5.8590   -2.9110 o         1 MOL     -0.595056
     23 C9          0.1770    5.4410   -1.3960 c3        1 MOL      0.295602
     24 C10         1.1020    5.6750   -0.2160 c3        1 MOL     -0.010910
     25 C11         0.2930    6.3750   -2.6130 c3        1 MOL     -0.304084
     26 C12         2.4910    5.9020   -0.5620 c3        1 MOL      0.023921
     27 H8         -1.4800    3.6480    0.0540 hn        1 MOL      0.061305
     28 H9         -1.5500    6.5370   -0.6440 h1        1 MOL      0.078395
     29 H10         0.2290    4.4040   -1.7310 hc        1 MOL     -0.011470
     30 H11         1.0630    4.8740    0.5200 hc        1 MOL     -0.012955
     31 H12         0.7880    6.5930    0.2680 hc        1 MOL     -0.012955
     32 H13         1.2800    6.2260   -3.0510 hc        1 MOL      0.062633
     33 H14        -0.3770    6.1580   -3.4360 hc        1 MOL      0.062633
     34 H15         0.1650    7.4110   -2.3090 hc        1 MOL      0.062633
     35 H16         2.6180    6.8020   -1.1700 hc        1 MOL     -0.016812
     36 H17         3.1140    6.0380    0.3240 hc        1 MOL     -0.016812
     37 H18         2.8760    5.0960   -1.1830 hc        1 MOL     -0.016812
     38 N3         -2.7880    3.8530   -2.0170 n         1 MOL     -0.698211
     39 C13        -3.3930    3.3420   -3.2910 c3        1 MOL      0.325692
     40 C14        -4.7990    2.6480   -3.1480 c         1 MOL      0.299611
     41 O6         -5.4740    2.4970   -4.1760 o         1 MOL     -0.550251
     42 C15        -2.3430    2.4980   -4.0650 c3        1 MOL     -0.322859
     43 C16        -1.9050    1.2630   -3.2500 c         1 MOL      0.745869
     44 O7         -2.7200    0.8460   -2.3670 o         1 MOL     -0.704701
     45 O8         -0.7710    0.7240   -3.2630 o         1 MOL     -0.704701
     46 H19        -2.4490    3.2270   -1.3020 hn        1 MOL      0.486963
     47 H20        -3.5970    4.1500   -3.9910 h1        1 MOL      0.051776
     48 H21        -1.5140    3.1770   -4.2340 hc        1 MOL      0.089051
     49 H22        -2.7480    2.2710   -5.0560 hc        1 MOL      0.089051
     50 N4         -5.3030    2.2130   -1.9460 n         1 MOL     -0.038595
     51 C17        -6.6870    1.8160   -1.7260 c3        1 MOL     -0.203750
     52 C18        -7.0450    0.3300   -1.9820 c         1 MOL      0.521802
     53 O9         -8.2480    0.0510   -2.0240 o         1 MOL     -0.587112
     54 H23        -4.7360    2.2680   -1.1210 hn        1 MOL      0.045381
     55 H24        -7.3790    2.4550   -2.2660 h1        1 MOL      0.100895
     56 H25        -6.8870    2.0420   -0.6820 h1        1 MOL      0.100895
     57 N5         -6.0090   -0.5500   -2.1910 n         1 MOL     -0.235390
     58 C19        -6.1930   -1.9430   -2.5100 c3        1 MOL     -0.051018
     59 C20        -6.6140   -2.8480   -1.3130 c         1 MOL      0.317889
     60 O10        -6.9170   -4.0790   -1.4120 o         1 MOL     -0.513810
     61 C21        -4.9190   -2.5210   -3.0600 c3        1 MOL     -0.179421
     62 C22        -3.6710   -2.3580   -2.2310 c         1 MOL      0.675953
     63 O11        -3.7860   -1.8190   -1.1090 o         1 MOL     -0.697315
     64 O12        -2.5790   -2.8090   -2.6570 o         1 MOL     -0.697315
     65 H26        -5.0660   -0.2280   -2.0890 hn        1 MOL      0.200183
     66 H27        -6.9120   -1.9880   -3.3360 h1        1 MOL      0.121036
     67 H28        -4.7860   -1.9940   -4.0160 hc        1 MOL      0.065334
     68 H29        -5.0590   -3.5790   -3.2940 hc        1 MOL      0.065334
     69 N6         -6.6120   -2.3100   -0.0720 n         1 MOL     -0.056934
     70 C23        -7.0650   -2.9780    1.2360 c3        1 MOL     -0.283319
     71 C24        -6.1100   -3.9330    1.9730 c         1 MOL      0.634669
     72 O13        -6.4850   -4.6860    2.8720 o         1 MOL     -0.576337
     73 H30        -6.2170   -1.3890    0.0160 hn        1 MOL      0.126936
     74 H31        -7.9950   -3.5000    1.0040 h1        1 MOL      0.107768
     75 H32        -7.4100   -2.1970    1.9100 h1        1 MOL      0.107768
     76 N7         -4.8460   -3.8290    1.5200 n         1 MOL     -0.419850
     77 C25        -3.6020   -4.4260    1.9630 c3        1 MOL      0.016197
     78 C26        -2.3900   -3.4150    2.0410 c         1 MOL      0.697548
     79 O14        -2.3070   -2.5430    1.1780 o         1 MOL     -0.649304
     80 C27        -3.2880   -5.6230    1.0610 c3        1 MOL     -0.275600
     81 C28        -2.9910   -5.0860   -0.3590 c3        1 MOL     -0.024251
     82 C29        -2.6790   -6.2220   -1.3140 c         1 MOL      0.568277
     83 N8         -2.6800   -5.9350   -2.5900 n         1 MOL     -0.710671
     84 O15        -2.4060   -7.3760   -0.9400 o         1 MOL     -0.598243
     85 H33        -4.7920   -3.2180    0.7170 hn        1 MOL      0.263590
     86 H34        -3.6980   -4.8240    2.9740 h1        1 MOL      0.049631
     87 H35        -4.1330   -6.3060    1.1050 hc        1 MOL      0.107965
     88 H36        -2.3280   -6.0290    1.3680 hc        1 MOL      0.107965
     89 H37        -2.1380   -4.4010   -0.3400 hc        1 MOL      0.096407
     90 H38        -3.8310   -4.5160   -0.7480 hc        1 MOL      0.096407
     91 H39        -2.5800   -4.9520   -2.8010 hn        1 MOL      0.331107
     92 H40        -2.2370   -6.6080   -3.2030 hn        1 MOL      0.331107
     93 N9         -1.4470   -3.5650    3.0040 n         1 MOL     -0.657014
     94 C30        -0.2180   -2.6710    3.0170 c3        1 MOL      0.047868
     95 C31         0.8630   -3.2990    2.1450 c         1 MOL      0.739150
     96 O16         1.0670   -4.5020    2.1250 o         1 MOL     -0.603822
     97 C32         0.2490   -2.3050    4.4440 c3        1 MOL      0.143859
     98 C33         1.7450   -2.1230    4.7400 c3        1 MOL     -0.304613
     99 C34        -0.4750   -1.0440    4.9170 c3        1 MOL     -0.304613
    100 H41        -1.3200   -4.4370    3.4900 hn        1 MOL      0.331277
    101 H42        -0.4980   -1.7320    2.5390 h1        1 MOL      0.084898
    102 H43         0.0360   -3.1330    5.1210 hc        1 MOL      0.005029
    103 H44         2.2000   -3.0380    4.3690 hc        1 MOL      0.073502
    104 H45         2.1780   -1.2780    4.2100 hc        1 MOL      0.073502
    105 H46         1.8730   -1.9830    5.8100 hc        1 MOL      0.073502
    106 H47        -0.0200   -0.1320    4.5230 hc        1 MOL      0.073502
    107 H48        -1.5330   -0.9790    4.6600 hc        1 MOL      0.073502
    108 H49        -0.3670   -1.0500    6.0040 hc        1 MOL      0.073502
    109 N10         1.6990   -2.4690    1.4380 n         1 MOL     -0.396193
    110 C35         2.7880   -2.8830    0.6700 c3        1 MOL      0.369462
    111 C36         4.1250   -2.3240    1.1800 c         1 MOL      0.363335
    112 O17         4.1580   -1.3980    1.9610 o         1 MOL     -0.488835
    113 C37         2.5340   -2.7490   -0.8080 c3        1 MOL     -0.167415
    114 C38         2.9320   -1.4250   -1.3560 c         1 MOL      0.610369
    115 N11         2.0220   -0.5260   -1.5740 n         1 MOL     -0.663281
    116 O18         4.0790   -1.1570   -1.6090 o         1 MOL     -0.573064
    117 H50         1.4890   -1.4850    1.4560 hn        1 MOL     -0.068284
    118 H51         3.0000   -3.9440    0.7930 h1        1 MOL     -0.040523
    119 H52         1.4780   -2.9750   -0.9540 hc        1 MOL      0.046765
    120 H53         3.0240   -3.4990   -1.4160 hc        1 MOL      0.046765
    121 H54         1.0690   -0.7410   -1.3160 hn        1 MOL      0.387321
    122 H55         2.2710    0.4230   -1.8100 hn        1 MOL      0.387321
    123 N12         5.2160   -2.8250    0.5330 n         1 MOL     -0.366474
    124 C39         6.6090   -2.2770    0.7850 c3        1 MOL     -0.024641
    125 C40         6.9660   -0.7180    0.4890 c         1 MOL      0.525860
    126 O19         8.0080   -0.2410    0.9350 o         1 MOL     -0.607897
    127 C41         7.6620   -3.1980    0.1540 c3        1 MOL     -0.097737
    128 C42         7.6880   -3.1780   -1.3810 ca        1 MOL      0.052094
    129 C43         8.2630   -2.0320   -2.0410 ca        1 MOL     -0.187281
    130 C44         7.1660   -4.1970   -2.1450 ca        1 MOL     -0.187281
    131 C45         8.1390   -1.9010   -3.4490 ca        1 MOL     -0.274285
    132 C46         7.0670   -4.0720   -3.5910 ca        1 MOL     -0.274285
    133 C47         7.4400   -2.8680   -4.2210 ca        1 MOL      0.395836
    134 O20         7.2650   -2.6770   -5.5770 oh        1 MOL     -0.553024
    135 H56         5.1290   -3.5140   -0.2010 hn        1 MOL      0.235796
    136 H57         6.7020   -2.3530    1.8700 h1        1 MOL      0.080536
    137 H58         7.5310   -4.2300    0.4760 hc        1 MOL      0.038088
    138 H59         8.6440   -2.9240    0.5310 hc        1 MOL      0.038088
    139 H60         8.6740   -1.1940   -1.4930 ha        1 MOL      0.143668
    140 H61         6.6200   -4.9590   -1.6200 ha        1 MOL      0.143668
    141 H62         8.5900   -1.0580   -3.9460 ha        1 MOL      0.146880
    142 H63         6.5930   -4.9050   -4.0960 ha        1 MOL      0.146880
    143 H64         7.3890   -1.7400   -5.7610 ho        1 MOL      0.416008
    144 N13         6.0590   -0.0010   -0.1120 n         1 MOL     -0.005265
    145 C48         6.0310    1.4560   -0.2440 c3        1 MOL     -0.148707
    146 C49         5.3650    2.1330    0.9910 c         1 MOL      0.468497
    147 O21         5.8750    3.1320    1.5050 o         1 MOL     -0.525568
    148 C50         5.3680    1.9950   -1.5500 c3        1 MOL      0.046794
    149 C51         6.0470    1.5350   -2.9150 c3        1 MOL     -0.260004
    150 C52         5.3800    2.2460   -4.1050 c         1 MOL      0.666500
    151 O22         5.4780    3.5190   -4.1730 o         1 MOL     -0.722192
    152 O23         4.8680    1.4660   -4.9960 o         1 MOL     -0.722192
    153 H65         5.3080   -0.4280   -0.6410 hn        1 MOL      0.165907
    154 H66         7.0840    1.7500   -0.3230 h1        1 MOL      0.072397
    155 H67         5.2770    3.0760   -1.4280 hc        1 MOL      0.042258
    156 H68         4.3430    1.6320   -1.6600 hc        1 MOL      0.042258
    157 H69         6.1310    0.4450   -2.9360 hc        1 MOL      0.042861
    158 H70         7.0910    1.8430   -2.8910 hc        1 MOL      0.042861
    159 N14         4.2690    1.4110    1.4310 n         1 MOL     -0.365884
    160 C53         3.5060    1.8740    2.5810 c3        1 MOL     -0.074883
    161 C54         4.1280    1.3650    3.9260 c         1 MOL      0.407010
    162 O24         3.5890    1.6790    4.9940 o         1 MOL     -0.538059
    163 C55         2.0650    1.3800    2.5340 c3        1 MOL     -0.183289
    164 C56         1.2610    2.1650    1.4160 c3        1 MOL      0.221474
    165 C57         0.2290    1.3400    0.6460 c         1 MOL      0.397640
    166 O25         0.0150    0.1540    1.0680 o         1 MOL     -0.605769
    167 O26        -0.4160    1.8720   -0.2600 o         1 MOL     -0.605769
    168 H71         3.9140    0.6330    0.8900 hn        1 MOL      0.205619
    169 H72         3.6700    2.9560    2.6480 h1        1 MOL      0.114704
    170 H73         1.5800    1.4960    3.5000 hc        1 MOL      0.160463
    171 H74         2.1240    0.3040    2.3780 hc        1 MOL      0.160463
    172 H75         2.0080    2.5760    0.7370 hc        1 MOL     -0.040935
    173 H76         0.7460    3.0000    1.9000 hc        1 MOL     -0.040935
    174 N15         5.2320    0.5810    3.8830 n         1 MOL     -0.152891
    175 C58         5.9580    0.2290    5.1330 c3        1 MOL     -0.144830
    176 H77         6.9250   -0.2070    4.8800 h1        1 MOL      0.065515
    177 H78         6.1100    1.1270    5.7310 h1        1 MOL      0.065515
    178 H79         5.3740   -0.4930    5.7030 h1        1 MOL      0.065515
    179 H80         5.6110    0.2370    3.0110 hn        1 MOL      0.204630
    180 Ca1        -2.3870   -0.0320    0.0160 Ca        1 MOL      1.775403
    181 O27        -5.2720    0.3950    0.8190 oh        1 MOL     -0.859201
    182 H81        -5.9240    0.0840    1.4440 ho        1 MOL      0.412258
    183 H82        -5.2930    1.3450    0.9010 ho        1 MOL      0.412258
    184 O28        -2.6680    0.7410    2.5250 oh        1 MOL     -0.859201
    185 H83        -3.2770    0.6080    3.2540 ho        1 MOL      0.412258
    186 H84        -1.9540    1.2580    2.9180 ho        1 MOL      0.412258
    187 O29        -0.6500   -1.3530   -1.6550 oh        1 MOL     -0.859201
    188 H85        -1.3140   -1.9850   -1.9450 ho        1 MOL      0.412258
    189 H86        -0.6480   -0.6860   -2.3350 ho        1 MOL      0.412258
@<TRIPOS>BOND
     1    1    2 1   
     2    1    4 1   
     3    1    5 1   
     4    1    6 1   
     5    2    3 2   
     6    2    7 1   
     7    7    8 1   
     8    7   15 1   
     9    8    9 1   
    10    8   11 1   
    11    8   16 1   
    12    9   10 2   
    13    9   19 1   
    14   11   12 1   
    15   11   17 1   
    16   11   18 1   
    17   12   13 1   
    18   12   14 1   
    19   19   20 1   
    20   19   27 1   
    21   20   21 1   
    22   20   23 1   
    23   20   28 1   
    24   21   22 2   
    25   21   38 1   
    26   23   24 1   
    27   23   25 1   
    28   23   29 1   
    29   24   26 1   
    30   24   30 1   
    31   24   31 1   
    32   25   32 1   
    33   25   33 1   
    34   25   34 1   
    35   26   35 1   
    36   26   36 1   
    37   26   37 1   
    38   38   39 1   
    39   38   46 1   
    40   39   40 1   
    41   39   42 1   
    42   39   47 1   
    43   40   41 2   
    44   40   50 1   
    45   42   43 1   
    46   42   48 1   
    47   42   49 1   
    48   43   44 1   
    49   43   45 1   
    50   50   51 1   
    51   50   54 1   
    52   51   52 1   
    53   51   55 1   
    54   51   56 1   
    55   52   53 2   
    56   52   57 1   
    57   57   58 1   
    58   57   65 1   
    59   58   59 1   
    60   58   61 1   
    61   58   66 1   
    62   59   60 2   
    63   59   69 1   
    64   61   62 1   
    65   61   67 1   
    66   61   68 1   
    67   62   63 1   
    68   62   64 1   
    69   69   70 1   
    70   69   73 1   
    71   70   71 1   
    72   70   74 1   
    73   70   75 1   
    74   71   72 2   
    75   71   76 1   
    76   76   77 1   
    77   76   85 1   
    78   77   78 1   
    79   77   80 1   
    80   77   86 1   
    81   78   79 2   
    82   78   93 1   
    83   80   81 1   
    84   80   87 1   
    85   80   88 1   
    86   81   82 1   
    87   81   89 1   
    88   81   90 1   
    89   82   83 1   
    90   82   84 2   
    91   83   91 1   
    92   83   92 1   
    93   93   94 1   
    94   93  100 1   
    95   94   95 1   
    96   94   97 1   
    97   94  101 1   
    98   95   96 2   
    99   95  109 1   
   100   97   98 1   
   101   97   99 1   
   102   97  102 1   
   103   98  103 1   
   104   98  104 1   
   105   98  105 1   
   106   99  106 1   
   107   99  107 1   
   108   99  108 1   
   109  109  110 1   
   110  109  117 1   
   111  110  111 1   
   112  110  113 1   
   113  110  118 1   
   114  111  112 2   
   115  111  123 1   
   116  113  114 1   
   117  113  119 1   
   118  113  120 1   
   119  114  115 1   
   120  114  116 2   
   121  115  121 1   
   122  115  122 1   
   123  123  124 1   
   124  123  135 1   
   125  124  125 1   
   126  124  127 1   
   127  124  136 1   
   128  125  126 2   
   129  125  144 1   
   130  127  128 1   
   131  127  137 1   
   132  127  138 1   
   133  128  129 ar  
   134  128  130 ar  
   135  129  131 ar  
   136  129  139 1   
   137  130  132 ar  
   138  130  140 1   
   139  131  133 ar  
   140  131  141 1   
   141  132  133 ar  
   142  132  142 1   
   143  133  134 1   
   144  134  143 1   
   145  144  145 1   
   146  144  153 1   
   147  145  146 1   
   148  145  148 1   
   149  145  154 1   
   150  146  147 2   
   151  146  159 1   
   152  148  149 1   
   153  148  155 1   
   154  148  156 1   
   155  149  150 1   
   156  149  157 1   
   157  149  158 1   
   158  150  151 1   
   159  150  152 1   
   160  159  160 1   
   161  159  168 1   
   162  160  161 1   
   163  160  163 1   
   164  160  169 1   
   165  161  162 2   
   166  161  174 1   
   167  163  164 1   
   168  163  170 1   
   169  163  171 1   
   170  164  165 1   
   171  164  172 1   
   172  164  173 1   
   173  165  166 1   
   174  165  167 1   
   175  174  175 1   
   176  174  179 1   
   177  175  176 1   
   178  175  177 1   
   179  175  178 1   
   180  181  182 1   
   181  181  183 1   
   182  184  185 1   
   183  184  186 1   
   184  187  188 1   
   185  187  189 1   
@<TRIPOS>SUBSTRUCTURE
     1 MOL         1 TEMP              0 ****  ****    0 ROOT
