@<TRIPOS>MOLECULE
MOL
  179   176     1     0     0
SMALL
resp


@<TRIPOS>ATOM
      1 C1          1.8640    3.3770    5.6700 c3        1 MOL     -0.294235
      2 C2          1.4820    2.8660    4.2210 c         1 MOL      0.613226
      3 O1          2.3630    2.7230    3.3390 o         1 MOL     -0.622280
      4 H1          1.2160    4.2100    5.9430 hc        1 MOL      0.077326
      5 H2          1.7360    2.5660    6.3870 hc        1 MOL      0.077326
      6 H3          2.9020    3.7080    5.6770 hc        1 MOL      0.077326
      7 N1          0.2030    2.8200    3.9580 n         1 MOL     -0.353545
      8 C3         -0.3670    2.4940    2.6630 c3        1 MOL      0.026317
      9 C4         -0.6580    3.7810    1.8930 c         1 MOL      0.358834
     10 O2         -1.5290    4.5940    2.3350 o         1 MOL     -0.517319
     11 C5         -1.6870    1.7010    2.9260 c3        1 MOL     -0.390999
     12 C6         -2.5410    1.3910    1.6630 c         1 MOL      0.966910
     13 O3         -3.7310    0.9550    1.7990 o         1 MOL     -0.844346
     14 O4         -2.0670    1.6340    0.5220 o         1 MOL     -0.844346
     15 H4         -0.4100    2.8940    4.7590 hn        1 MOL      0.282067
     16 H5          0.2870    1.8850    2.0270 h1        1 MOL      0.044627
     17 H6         -2.3790    2.1300    3.6460 hc        1 MOL      0.119207
     18 H7         -1.4120    0.6970    3.2380 hc        1 MOL      0.119207
     19 N2          0.0370    4.0850    0.8310 n         1 MOL     -0.266286
     20 C7         -0.0760    5.4330    0.2470 c3        1 MOL      0.196242
     21 C8         -1.3110    5.7510   -0.5640 c         1 MOL      0.334183
     22 O5         -1.7850    6.8670   -0.4290 o         1 MOL     -0.559653
     23 C9          1.1610    5.8000   -0.6330 c3        1 MOL     -0.272911
     24 C10         2.4700    5.5810    0.1040 c3        1 MOL      0.039142
     25 C11         3.6110    6.2930   -0.6310 c3        1 MOL      0.046542
     26 C12         4.8810    6.1770    0.2010 c3        1 MOL     -0.099496
     27 N3          5.9530    6.9730   -0.4010 n4        1 MOL     -0.162127
     28 H8          0.7210    3.4720    0.4070 hn        1 MOL      0.324463
     29 H9         -0.0770    6.1520    1.0710 h1        1 MOL      0.042831
     30 H10         1.1230    6.8850   -0.7360 hc        1 MOL      0.078762
     31 H11         1.0880    5.2140   -1.5460 hc        1 MOL      0.078762
     32 H12         2.5820    4.5100    0.2770 hc        1 MOL      0.023581
     33 H13         2.3900    6.0550    1.0790 hc        1 MOL      0.023581
     34 H14         3.4200    7.3040   -1.0060 hc        1 MOL      0.015773
     35 H15         3.7410    5.8230   -1.6070 hc        1 MOL      0.015773
     36 H16         5.1280    5.1200    0.2260 hx        1 MOL      0.116543
     37 H17         4.5750    6.6320    1.1420 hx        1 MOL      0.116543
     38 H18         6.8030    6.8060    0.1020 hn        1 MOL      0.280309
     39 H19         6.1360    6.8560   -1.3980 hn        1 MOL      0.280309
     40 H20         5.9270    7.9740   -0.2590 hn        1 MOL      0.280309
     41 N4         -1.7560    4.8660   -1.3550 n         1 MOL     -0.196834
     42 C13        -3.0280    5.0310   -2.0620 c3        1 MOL      0.022218
     43 C14        -4.2440    4.5110   -1.1750 c         1 MOL      0.479207
     44 O6         -5.3850    4.6770   -1.6050 o         1 MOL     -0.535517
     45 C15        -2.8570    4.4500   -3.4900 c3        1 MOL     -0.254735
     46 C16        -2.1800    3.1250   -3.7490 c         1 MOL      0.744456
     47 O7         -1.8700    2.7070   -4.8950 o         1 MOL     -0.707278
     48 O8         -1.7900    2.4710   -2.7870 o         1 MOL     -0.707278
     49 H21        -1.2660    4.0010   -1.5230 hn        1 MOL      0.205839
     50 H22        -3.2280    6.1010   -2.2010 h1        1 MOL      0.103250
     51 H23        -2.2010    5.1440   -4.0100 hc        1 MOL      0.066730
     52 H24        -3.8010    4.4950   -4.0280 hc        1 MOL      0.066730
     53 N5         -3.9300    4.0530    0.0920 n         1 MOL     -0.200133
     54 C17        -5.0100    3.7960    1.0900 c3        1 MOL     -0.329323
     55 C18        -5.8930    2.6060    0.8290 c         1 MOL      0.588906
     56 O9         -6.9350    2.4880    1.5180 o         1 MOL     -0.597014
     57 H25        -3.0060    4.2920    0.3990 hn        1 MOL      0.232585
     58 H26        -5.6620    4.6630    1.0730 h1        1 MOL      0.160309
     59 H27        -4.5300    3.5850    2.0550 h1        1 MOL      0.160309
     60 N6         -5.6070    1.7660   -0.1880 n         1 MOL     -0.131352
     61 C19        -6.5670    0.8780   -0.9230 c3        1 MOL     -0.125700
     62 C20        -6.8040   -0.4700   -0.1200 c         1 MOL      0.468533
     63 O10        -7.3080   -1.4270   -0.7040 o         1 MOL     -0.504398
     64 C21        -6.0870    0.5760   -2.3220 c3        1 MOL      0.019733
     65 C22        -4.8060   -0.2300   -2.5930 c         1 MOL      0.630735
     66 N7         -4.8140   -1.0130   -3.5780 n         1 MOL     -0.741815
     67 O11        -3.8470   -0.1820   -1.8820 o         1 MOL     -0.578144
     68 H28        -4.6390    1.7160   -0.4740 hn        1 MOL      0.056734
     69 H29        -7.5340    1.3720   -1.0200 h1        1 MOL      0.128034
     70 H30        -6.0260    1.4880   -2.9110 hc        1 MOL      0.021671
     71 H31        -6.9130    0.0360   -2.7880 hc        1 MOL      0.021671
     72 H32        -5.6810   -1.1510   -4.0860 hn        1 MOL      0.360398
     73 H33        -3.9300   -1.4140   -3.8660 hn        1 MOL      0.360398
     74 N8         -6.3500   -0.5820    1.1410 n         1 MOL     -0.449488
     75 C23        -6.4190   -1.6700    2.0280 c3        1 MOL     -0.022643
     76 C24        -5.1010   -2.5510    2.1380 c         1 MOL      0.550111
     77 O12        -5.0960   -3.4120    2.9790 o         1 MOL     -0.568561
     78 H34        -5.8580    0.2320    1.4930 hn        1 MOL      0.405509
     79 H35        -7.2440   -2.3590    1.8850 h1        1 MOL      0.083665
     80 H36        -6.5780   -1.4170    3.0730 h1        1 MOL      0.083665
     81 N9         -4.1490   -2.3640    1.2560 n         1 MOL     -0.362614
     82 C25        -2.9680   -3.2200    1.1160 c3        1 MOL      0.347233
     83 C26        -1.6240   -2.4660    0.8500 c         1 MOL      0.310476
     84 O13        -1.5600   -1.3290    0.4290 o         1 MOL     -0.519737
     85 C27        -3.2290   -4.2420    0.0130 c3        1 MOL     -0.079340
     86 C28        -4.4910   -5.1350    0.0550 ca        1 MOL      0.091538
     87 C29        -5.6680   -4.8400   -0.7180 ca        1 MOL     -0.255874
     88 C30        -4.3110   -6.3070    0.7670 ca        1 MOL     -0.255874
     89 C31        -6.7020   -5.7730   -0.6520 ca        1 MOL     -0.134995
     90 C32        -5.4120   -7.2220    0.8750 ca        1 MOL     -0.134995
     91 C33        -6.5460   -6.9520    0.0910 ca        1 MOL      0.229144
     92 O14        -7.5340   -7.8400    0.1500 oh        1 MOL     -0.461611
     93 H37        -4.1540   -1.5720    0.6290 hn        1 MOL      0.227364
     94 H38        -2.9340   -3.7790    2.0460 h1        1 MOL     -0.004565
     95 H39        -2.3260   -4.8170   -0.1470 hc        1 MOL      0.018576
     96 H40        -3.4180   -3.7220   -0.9300 hc        1 MOL      0.018576
     97 H41        -5.7910   -3.9970   -1.3850 ha        1 MOL      0.149898
     98 H42        -3.3230   -6.5520    1.1270 ha        1 MOL      0.149898
     99 H43        -7.6010   -5.6470   -1.2270 ha        1 MOL      0.124531
    100 H44        -5.4360   -8.1700    1.3940 ha        1 MOL      0.124531
    101 H45        -7.3530   -8.5830    0.7310 ho        1 MOL      0.354030
    102 N10        -0.4950   -3.1510    1.1660 n         1 MOL     -0.392998
    103 C34         0.8430   -2.6320    1.0720 c3        1 MOL      0.061640
    104 C35         1.5980   -3.6350    0.2320 c         1 MOL      0.557731
    105 O15         1.6030   -4.8130    0.5050 o         1 MOL     -0.556579
    106 C36         1.4220   -2.5840    2.5650 c3        1 MOL      0.040638
    107 C37         0.7360   -1.4120    3.2270 c3        1 MOL      0.113602
    108 C38         2.8880   -2.6390    2.7180 c3        1 MOL     -0.033423
    109 C39         1.0610   -1.0780    4.6190 c3        1 MOL     -0.125927
    110 H46        -0.6430   -4.0420    1.6050 hn        1 MOL      0.260616
    111 H47         0.7660   -1.6420    0.6260 h1        1 MOL      0.054726
    112 H48         1.0880   -3.4740    3.1050 hc        1 MOL     -0.001646
    113 H49        -0.3430   -1.5520    3.1070 hc        1 MOL     -0.015443
    114 H50         0.9920   -0.5460    2.6230 hc        1 MOL     -0.015443
    115 H51         3.1600   -2.7070    3.7750 hc        1 MOL      0.005583
    116 H52         3.3760   -3.5050    2.2680 hc        1 MOL      0.005583
    117 H53         3.2460   -1.7120    2.2680 hc        1 MOL      0.005583
    118 H54         2.0750   -0.6710    4.7000 hc        1 MOL      0.020785
    119 H55         0.3250   -0.3660    4.9870 hc        1 MOL      0.020785
    120 H56         1.1050   -1.9430    5.2720 hc        1 MOL      0.020785
    121 N11         2.3110   -3.0630   -0.7300 n         1 MOL     -0.322503
    122 C40         3.4180   -3.7470   -1.4110 c3        1 MOL      0.026387
    123 C41         4.6660   -3.7920   -0.6430 c         1 MOL      0.433079
    124 O16         4.9220   -2.8680    0.1540 o         1 MOL     -0.387214
    125 C42         3.5480   -3.0840   -2.8060 c3        1 MOL     -0.195547
    126 O17         4.2290   -1.8160   -2.7690 oh        1 MOL     -0.392127
    127 H57         2.1800   -2.1330   -1.0910 hn        1 MOL      0.277014
    128 H58         3.0560   -4.7680   -1.5200 h1        1 MOL      0.050545
    129 H59         2.5540   -3.0500   -3.2440 h1        1 MOL      0.109465
    130 H60         4.1230   -3.7590   -3.4410 h1        1 MOL      0.109465
    131 H61         3.8760   -1.3210   -3.5100 ho        1 MOL      0.367368
    132 N12         5.6090   -4.6100   -1.0820 n         1 MOL     -0.385094
    133 C43         7.0090   -4.6440   -0.6690 c3        1 MOL      0.071885
    134 C44         7.7400   -3.3030   -0.7950 c         1 MOL      0.545936
    135 O18         8.4660   -2.9700    0.1730 o         1 MOL     -0.529600
    136 C45         7.7830   -5.7780   -1.3970 c3        1 MOL     -0.282453
    137 H62         5.3650   -5.3200   -1.7590 hn        1 MOL      0.282233
    138 H63         7.0560   -4.9660    0.3640 h1        1 MOL      0.099710
    139 H64         8.8100   -5.5560   -1.1310 hc        1 MOL      0.086010
    140 H65         7.4240   -6.7690   -1.1020 hc        1 MOL      0.086010
    141 H66         7.6910   -5.7650   -2.4820 hc        1 MOL      0.086010
    142 N13         7.4450   -2.5020   -1.8050 n         1 MOL     -0.429823
    143 C46         7.9000   -1.1380   -2.0450 c3        1 MOL      0.141403
    144 C47         7.3380   -0.0480   -1.0520 c         1 MOL      0.336887
    145 O19         8.1280    0.7260   -0.5350 o         1 MOL     -0.500521
    146 C48         7.5660   -0.7580   -3.5110 c3        1 MOL     -0.147677
    147 H67         6.6890   -2.7770   -2.4250 hn        1 MOL      0.248821
    148 H68         8.9860   -1.0970   -1.9410 h1        1 MOL      0.078315
    149 H69         7.8890    0.2310   -3.8080 hc        1 MOL      0.037614
    150 H70         7.9400   -1.4810   -4.2320 hc        1 MOL      0.037614
    151 H71         6.4820   -0.8180   -3.5670 hc        1 MOL      0.037614
    152 N14         6.0350   -0.0740   -0.7440 n         1 MOL     -0.120854
    153 C49         5.3990    0.6910    0.3360 c3        1 MOL     -0.232612
    154 C50         5.9990    0.2960    1.6940 c         1 MOL      0.537023
    155 O20         6.2640    1.2540    2.4160 o         1 MOL     -0.577102
    156 C51         3.8190    0.4990    0.4490 c3        1 MOL     -0.029732
    157 C52         3.2200    1.2210   -0.7460 c3        1 MOL      0.137141
    158 C53         1.7690    0.9130   -0.9690 c         1 MOL      0.682057
    159 O21         0.9700    1.8420   -0.8160 o         1 MOL     -0.764043
    160 O22         1.3860   -0.2230   -1.3620 o         1 MOL     -0.764043
    161 H72         5.4910   -0.6130   -1.4040 hn        1 MOL      0.120930
    162 H73         5.6120    1.7320    0.1080 h1        1 MOL      0.125106
    163 H74         3.4640    1.0220    1.3290 hc        1 MOL      0.058496
    164 H75         3.5220   -0.5530    0.4190 hc        1 MOL      0.058496
    165 H76         3.6760    0.9820   -1.7030 hc        1 MOL     -0.051975
    166 H77         3.4140    2.2890   -0.7270 hc        1 MOL     -0.051975
    167 N15         6.4200   -0.9480    1.9220 n         1 MOL     -0.008880
    168 C54         7.0580   -1.3640    3.1260 c3        1 MOL     -0.341073
    169 H78         7.4400   -2.3770    3.0030 h1        1 MOL      0.118521
    170 H79         7.8850   -0.6900    3.3520 h1        1 MOL      0.118521
    171 H80         6.3390   -1.3450    3.9440 h1        1 MOL      0.118521
    172 H81         6.2290   -1.6510    1.2250 hn        1 MOL      0.081766
    173 Ca1        -1.1920    0.3040   -1.5360 Ca        1 MOL      1.761166
    174 O23        -1.1200   -2.4080   -2.3990 oh        1 MOL     -0.884969
    175 H82        -0.7590   -2.3410   -3.2830 ho        1 MOL      0.413803
    176 H83        -1.7920   -3.0820   -2.4610 ho        1 MOL      0.413803
    177 O24        -1.0050   -0.0870   -4.1450 oh        1 MOL     -0.884969
    178 H84        -0.7230   -0.8590   -4.6280 ho        1 MOL      0.413803
    179 H85        -0.8070    0.6500   -4.7330 ho        1 MOL      0.413803
@<TRIPOS>BOND
     1    1    2 1   
     2    1    4 1   
     3    1    5 1   
     4    1    6 1   
     5    2    3 2   
     6    2    7 1   
     7    7    8 1   
     8    7   15 1   
     9    8    9 1   
    10    8   11 1   
    11    8   16 1   
    12    9   10 2   
    13    9   19 1   
    14   11   12 1   
    15   11   17 1   
    16   11   18 1   
    17   12   13 1   
    18   12   14 1   
    19   19   20 1   
    20   19   28 1   
    21   20   21 1   
    22   20   23 1   
    23   20   29 1   
    24   21   22 2   
    25   21   41 1   
    26   23   24 1   
    27   23   30 1   
    28   23   31 1   
    29   24   25 1   
    30   24   32 1   
    31   24   33 1   
    32   25   26 1   
    33   25   34 1   
    34   25   35 1   
    35   26   27 1   
    36   26   36 1   
    37   26   37 1   
    38   27   38 1   
    39   27   39 1   
    40   27   40 1   
    41   41   42 1   
    42   41   49 1   
    43   42   43 1   
    44   42   45 1   
    45   42   50 1   
    46   43   44 2   
    47   43   53 1   
    48   45   46 1   
    49   45   51 1   
    50   45   52 1   
    51   46   47 1   
    52   46   48 1   
    53   53   54 1   
    54   53   57 1   
    55   54   55 1   
    56   54   58 1   
    57   54   59 1   
    58   55   56 2   
    59   55   60 1   
    60   60   61 1   
    61   60   68 1   
    62   61   62 1   
    63   61   64 1   
    64   61   69 1   
    65   62   63 2   
    66   62   74 1   
    67   64   65 1   
    68   64   70 1   
    69   64   71 1   
    70   65   66 1   
    71   65   67 2   
    72   66   72 1   
    73   66   73 1   
    74   74   75 1   
    75   74   78 1   
    76   75   76 1   
    77   75   79 1   
    78   75   80 1   
    79   76   77 2   
    80   76   81 1   
    81   81   82 1   
    82   81   93 1   
    83   82   83 1   
    84   82   85 1   
    85   82   94 1   
    86   83   84 2   
    87   83  102 1   
    88   85   86 1   
    89   85   95 1   
    90   85   96 1   
    91   86   87 ar  
    92   86   88 ar  
    93   87   89 ar  
    94   87   97 1   
    95   88   90 ar  
    96   88   98 1   
    97   89   91 ar  
    98   89   99 1   
    99   90   91 ar  
   100   90  100 1   
   101   91   92 1   
   102   92  101 1   
   103  102  103 1   
   104  102  110 1   
   105  103  104 1   
   106  103  106 1   
   107  103  111 1   
   108  104  105 2   
   109  104  121 1   
   110  106  107 1   
   111  106  108 1   
   112  106  112 1   
   113  107  109 1   
   114  107  113 1   
   115  107  114 1   
   116  108  115 1   
   117  108  116 1   
   118  108  117 1   
   119  109  118 1   
   120  109  119 1   
   121  109  120 1   
   122  121  122 1   
   123  121  127 1   
   124  122  123 1   
   125  122  125 1   
   126  122  128 1   
   127  123  124 2   
   128  123  132 1   
   129  125  126 1   
   130  125  129 1   
   131  125  130 1   
   132  126  131 1   
   133  132  133 1   
   134  132  137 1   
   135  133  134 1   
   136  133  136 1   
   137  133  138 1   
   138  134  135 2   
   139  134  142 1   
   140  136  139 1   
   141  136  140 1   
   142  136  141 1   
   143  142  143 1   
   144  142  147 1   
   145  143  144 1   
   146  143  146 1   
   147  143  148 1   
   148  144  145 2   
   149  144  152 1   
   150  146  149 1   
   151  146  150 1   
   152  146  151 1   
   153  152  153 1   
   154  152  161 1   
   155  153  154 1   
   156  153  156 1   
   157  153  162 1   
   158  154  155 2   
   159  154  167 1   
   160  156  157 1   
   161  156  163 1   
   162  156  164 1   
   163  157  158 1   
   164  157  165 1   
   165  157  166 1   
   166  158  159 1   
   167  158  160 1   
   168  167  168 1   
   169  167  172 1   
   170  168  169 1   
   171  168  170 1   
   172  168  171 1   
   173  174  175 1   
   174  174  176 1   
   175  177  178 1   
   176  177  179 1   
@<TRIPOS>SUBSTRUCTURE
     1 MOL         1 TEMP              0 ****  ****    0 ROOT
