@<TRIPOS>MOLECULE
MOL
  189   185     1     0     0
SMALL
resp


@<TRIPOS>ATOM
      1 C1          0.0340    3.7390   -4.2540 c3        1 MOL     -0.448067
      2 C2          0.6570    2.9830   -3.1250 c         1 MOL      0.718710
      3 O1          0.0950    3.0480   -2.0710 o         1 MOL     -0.566076
      4 H1         -1.0510    3.7080   -4.1570 hc        1 MOL      0.104918
      5 H2          0.3700    4.7760   -4.2270 hc        1 MOL      0.104918
      6 H3          0.3280    3.2860   -5.2020 hc        1 MOL      0.104918
      7 N1          1.7810    2.2950   -3.2430 n         1 MOL     -0.520757
      8 C3          2.4600    1.7460   -2.0540 c3        1 MOL      0.096243
      9 C4          3.1250    2.8880   -1.3470 c         1 MOL      0.337511
     10 O2          4.2500    3.2400   -1.6620 o         1 MOL     -0.495046
     11 C5          3.4150    0.6790   -2.5190 c3        1 MOL     -0.216778
     12 C6          4.0720    0.0940   -1.3360 c         1 MOL      0.659759
     13 O3          3.5520    0.1670   -0.1920 o         1 MOL     -0.640209
     14 O4          5.1190   -0.4990   -1.5750 o         1 MOL     -0.640209
     15 H4          2.2980    2.1810   -4.1070 hn        1 MOL      0.306743
     16 H5          1.7130    1.3160   -1.3840 h1        1 MOL      0.001618
     17 H6          4.1120    1.0290   -3.2810 hc        1 MOL      0.073072
     18 H7          2.8450   -0.0840   -3.0620 hc        1 MOL      0.073072
     19 N2          2.5240    3.5480   -0.3660 n         1 MOL     -0.170619
     20 C7          3.0740    4.7580    0.3290 c3        1 MOL     -0.090017
     21 C8          4.1350    4.5240    1.3610 c         1 MOL      0.485424
     22 O5          5.0960    5.2940    1.4420 o         1 MOL     -0.540823
     23 C9          1.8810    5.5060    0.9730 c3        1 MOL     -0.141899
     24 C10         0.9140    6.1960    0.0070 c3        1 MOL      0.148554
     25 C11         1.5590    7.4180   -0.6560 c3        1 MOL     -0.102718
     26 C12         0.6060    8.4290   -1.2920 c3        1 MOL      0.012670
     27 N3         -0.3600    7.7520   -2.2260 n4        1 MOL     -0.414893
     28 H8          1.5950    3.2520   -0.1390 hn        1 MOL      0.275066
     29 H9          3.5410    5.3900   -0.4240 h1        1 MOL      0.065892
     30 H10         2.3140    6.2590    1.6350 hc        1 MOL      0.068452
     31 H11         1.3520    4.8010    1.6040 hc        1 MOL      0.068452
     32 H12         0.1540    6.5050    0.7250 hc        1 MOL     -0.022508
     33 H13         0.5000    5.5240   -0.7440 hc        1 MOL     -0.022508
     34 H14         2.2560    7.1100   -1.4280 hc        1 MOL      0.070798
     35 H15         2.0860    7.9810    0.1220 hc        1 MOL      0.070798
     36 H16         1.1740    9.2010   -1.7990 hx        1 MOL      0.092126
     37 H17         0.1030    8.9480   -0.4740 hx        1 MOL      0.092126
     38 H18        -0.8600    6.9320   -1.9080 hn        1 MOL      0.341220
     39 H19        -1.0480    8.4700   -2.4360 hn        1 MOL      0.341220
     40 H20         0.1380    7.4510   -3.0520 hn        1 MOL      0.341220
     41 N4          3.9470    3.3880    2.0560 n         1 MOL     -0.366105
     42 C13         4.8170    2.9080    3.1360 c3        1 MOL      0.062986
     43 C14         6.0250    2.0740    2.6320 c         1 MOL      0.381068
     44 O6          6.9110    1.7020    3.4430 o         1 MOL     -0.520114
     45 C15         3.9680    2.2290    4.2460 c3        1 MOL     -0.275273
     46 C16         2.9030    1.3090    3.7090 c         1 MOL      0.800484
     47 O7          3.0410    0.7370    2.6330 o         1 MOL     -0.737226
     48 O8          1.8080    1.0070    4.3470 o         1 MOL     -0.737226
     49 H21         3.3040    2.7110    1.6620 hn        1 MOL      0.229187
     50 H22         5.2850    3.7620    3.6210 h1        1 MOL      0.105002
     51 H23         3.5340    2.9840    4.9140 hc        1 MOL      0.081589
     52 H24         4.6920    1.7480    4.9030 hc        1 MOL      0.081589
     53 N5          6.1130    1.7440    1.3070 n         1 MOL     -0.191861
     54 C17         7.2690    1.0730    0.7500 c3        1 MOL     -0.244290
     55 C18         7.4500   -0.4540    1.1350 c         1 MOL      0.578622
     56 O9          8.5730   -0.9430    1.0010 o         1 MOL     -0.573555
     57 H25         5.3340    1.9720    0.6980 hn        1 MOL      0.261129
     58 H26         8.1910    1.5580    1.0770 h1        1 MOL      0.121065
     59 H27         7.2800    1.1360   -0.3340 h1        1 MOL      0.121065
     60 N6          6.3820   -1.1630    1.6280 n         1 MOL     -0.346334
     61 C19         6.3500   -2.5990    1.8340 c3        1 MOL      0.015413
     62 C20         6.3350   -3.4430    0.5700 c         1 MOL      0.369612
     63 O10         6.4800   -4.6710    0.6570 o         1 MOL     -0.549300
     64 C21         5.2430   -2.9480    2.7430 c3        1 MOL     -0.325757
     65 C22         3.8610   -2.5710    2.3110 c         1 MOL      0.868340
     66 O11         3.5360   -2.7190    1.1000 o         1 MOL     -0.767813
     67 O12         2.9790   -2.2480    3.1030 o         1 MOL     -0.767813
     68 H28         5.4950   -0.6720    1.6330 hn        1 MOL      0.282225
     69 H29         7.2810   -2.8040    2.3550 h1        1 MOL      0.123394
     70 H30         5.5380   -2.4410    3.6580 hc        1 MOL      0.087907
     71 H31         5.1940   -4.0230    2.9040 hc        1 MOL      0.087907
     72 N7          6.3240   -2.8080   -0.5830 n         1 MOL     -0.105356
     73 C23         6.2750   -3.5140   -1.8950 c3        1 MOL     -0.291649
     74 C24         4.9430   -4.1720   -2.2980 c         1 MOL      0.593259
     75 O13         4.9180   -5.1010   -3.1090 o         1 MOL     -0.569011
     76 H32         6.0390   -1.8430   -0.5060 hn        1 MOL      0.184217
     77 H33         6.9390   -4.3770   -1.8630 h1        1 MOL      0.129584
     78 H34         6.6180   -2.8220   -2.6680 h1        1 MOL      0.129584
     79 N8          3.8290   -3.7630   -1.6300 n         1 MOL     -0.242725
     80 C25         2.4210   -4.2520   -1.9510 c3        1 MOL     -0.355389
     81 C26         1.4690   -3.0360   -1.9520 c         1 MOL      0.887511
     82 O14         1.6840   -2.1350   -1.1540 o         1 MOL     -0.717693
     83 C27         1.9120   -5.3300   -0.9890 c3        1 MOL      0.480879
     84 C28         2.4490   -6.7140   -1.3060 c3        1 MOL     -0.450302
     85 O15         2.1420   -4.9370    0.3060 oh        1 MOL     -0.645954
     86 H35         3.9430   -3.1040   -0.8640 hn        1 MOL      0.228997
     87 H36         2.4250   -4.6620   -2.9630 h1        1 MOL      0.120996
     88 H37         0.8280   -5.4120   -1.0930 h1        1 MOL      0.003882
     89 H38         3.0510   -4.6370    0.2930 ho        1 MOL      0.438481
     90 H39         2.3610   -7.3420   -0.4090 hc        1 MOL      0.115482
     91 H40         1.8530   -7.2220   -2.0740 hc        1 MOL      0.115482
     92 H41         3.4930   -6.6380   -1.5990 hc        1 MOL      0.115482
     93 N9          0.4210   -3.0920   -2.7860 n         1 MOL     -0.779952
     94 C29        -0.7210   -2.1320   -2.8120 c3        1 MOL      0.091085
     95 C30        -1.9540   -2.8530   -2.2170 c         1 MOL      0.513429
     96 O16        -2.2390   -3.9320   -2.6210 o         1 MOL     -0.558509
     97 C31        -0.9700   -1.4880   -4.1910 c3        1 MOL      0.246702
     98 C32         0.2210   -0.6440   -4.7220 c3        1 MOL      0.125872
     99 C33        -2.2510   -0.6270   -4.1230 c3        1 MOL     -0.363261
    100 C34         0.2460   -0.4730   -6.2130 c3        1 MOL     -0.288520
    101 H42         0.3200   -3.9300   -3.3330 hn        1 MOL      0.349081
    102 H43        -0.5040   -1.3050   -2.1380 h1        1 MOL      0.043512
    103 H44        -1.2330   -2.2940   -4.8720 hc        1 MOL     -0.009350
    104 H45         1.1720   -1.1520   -4.5550 hc        1 MOL      0.013647
    105 H46         0.2880    0.3340   -4.2370 hc        1 MOL      0.013647
    106 H47        -2.2480    0.0060   -3.2380 hc        1 MOL      0.061819
    107 H48        -2.3600   -0.0010   -5.0110 hc        1 MOL      0.061819
    108 H49        -3.1340   -1.2570   -4.1460 hc        1 MOL      0.061819
    109 H50        -0.5580    0.1980   -6.5000 hc        1 MOL      0.058825
    110 H51         1.2280   -0.0700   -6.4650 hc        1 MOL      0.058825
    111 H52         0.0930   -1.4470   -6.6740 hc        1 MOL      0.058825
    112 N10        -2.5990   -2.1740   -1.2990 n         1 MOL     -0.140374
    113 C35        -3.8890   -2.5080   -0.6630 c3        1 MOL     -0.044300
    114 C36        -5.0760   -1.7390   -1.2240 c         1 MOL      0.366750
    115 O17        -4.9150   -0.6720   -1.7650 o         1 MOL     -0.302569
    116 C37        -3.8230   -2.1740    0.8430 c3        1 MOL      0.167688
    117 C38        -2.7130   -2.9090    1.5680 c3        1 MOL     -0.314462
    118 O18        -3.6350   -0.8090    1.1940 oh        1 MOL     -0.512933
    119 H53        -2.1860   -1.3200   -0.9460 hn        1 MOL      0.203934
    120 H54        -4.0390   -3.5630   -0.8490 h1        1 MOL      0.063177
    121 H55        -4.8180   -2.4530    1.1900 h1        1 MOL     -0.009178
    122 H56        -2.7010   -0.6570    1.0270 ho        1 MOL      0.359014
    123 H57        -2.5610   -2.4530    2.5390 hc        1 MOL      0.086683
    124 H58        -3.0420   -3.9360    1.7190 hc        1 MOL      0.086683
    125 H59        -1.7690   -2.9000    1.0250 hc        1 MOL      0.086683
    126 N11        -6.2540   -2.2700   -0.8790 n         1 MOL     -0.373945
    127 C39        -7.6290   -1.6900   -1.0830 c3        1 MOL     -0.073672
    128 C40        -7.6730   -0.3150   -0.4090 c         1 MOL      0.335433
    129 O19        -8.3650    0.6480   -0.9500 o         1 MOL     -0.493673
    130 C41        -8.6870   -2.4560   -0.3550 c3        1 MOL      0.210716
    131 C42        -9.0460   -3.7820   -1.0110 c3        1 MOL     -0.440729
    132 O20        -8.3370   -2.7980    0.9350 oh        1 MOL     -0.612996
    133 H60        -6.2440   -3.0190   -0.2070 hn        1 MOL      0.298425
    134 H61        -7.8310   -1.4650   -2.1300 h1        1 MOL      0.159609
    135 H62        -9.6070   -1.8720   -0.3030 h1        1 MOL      0.082243
    136 H63        -9.1780   -3.0250    1.3400 ho        1 MOL      0.406767
    137 H64        -9.1600   -3.5530   -2.0670 hc        1 MOL      0.127343
    138 H65        -8.2690   -4.5270   -0.8080 hc        1 MOL      0.127343
    139 H66       -10.0750   -4.0690   -0.7750 hc        1 MOL      0.127343
    140 N12        -7.0010   -0.1780    0.7500 n         1 MOL     -0.318053
    141 C43        -6.9440    1.0760    1.5420 c3        1 MOL      0.002291
    142 C44        -6.1060    2.1850    0.8900 c         1 MOL      0.373773
    143 O21        -6.4780    3.3440    0.6800 o         1 MOL     -0.491000
    144 C45        -6.3380    0.7890    2.8690 c3        1 MOL     -0.321816
    145 C46        -7.2420   -0.1640    3.6740 c3        1 MOL      0.375775
    146 C47        -6.6930   -0.3370    5.0770 c3        1 MOL     -0.065483
    147 C48        -7.2910   -1.6030    5.7660 c3        1 MOL      0.121565
    148 N13        -7.1560   -1.4690    7.2000 n4        1 MOL     -0.439109
    149 H67        -6.5740   -1.0120    1.1280 hn        1 MOL      0.395979
    150 H68        -7.9640    1.4620    1.6050 h1        1 MOL      0.104170
    151 H69        -6.5210    1.6620    3.5040 hc        1 MOL      0.083118
    152 H70        -5.2980    0.4890    2.7620 hc        1 MOL      0.083118
    153 H71        -7.2590   -1.1430    3.2000 hc        1 MOL     -0.092339
    154 H72        -8.2840    0.1190    3.7650 hc        1 MOL     -0.092339
    155 H73        -7.0040    0.5410    5.6480 hc        1 MOL      0.028958
    156 H74        -5.6110   -0.4410    5.1210 hc        1 MOL      0.028958
    157 H75        -6.7850   -2.4880    5.3920 hx        1 MOL      0.047855
    158 H76        -8.3510   -1.5950    5.5040 hx        1 MOL      0.047855
    159 H77        -7.7090   -0.6570    7.4260 hn        1 MOL      0.329620
    160 H78        -7.4070   -2.3630    7.6010 hn        1 MOL      0.329620
    161 H79        -6.1810   -1.3320    7.4330 hn        1 MOL      0.329620
    162 N14        -4.8910    1.8170    0.5060 n         1 MOL     -0.090855
    163 C49        -3.9650    2.6700   -0.2830 c3        1 MOL     -0.081812
    164 C50        -4.6120    3.0010   -1.6420 c         1 MOL      0.383192
    165 O22        -4.6350    4.2150   -2.0100 o         1 MOL     -0.569541
    166 C51        -2.7060    1.9080   -0.5740 c3        1 MOL      0.044709
    167 C52        -1.7950    2.0210    0.6240 c3        1 MOL     -0.127286
    168 C53        -0.7130    0.9260    0.5350 c         1 MOL      0.982877
    169 O23         0.4880    1.2050    0.7510 o         1 MOL     -0.817953
    170 O24        -1.0970   -0.2580    0.4900 o         1 MOL     -0.817953
    171 H80        -4.6130    0.8690    0.7460 hn        1 MOL      0.158822
    172 H81        -3.8030    3.6730    0.1110 h1        1 MOL      0.090920
    173 H82        -2.1620    2.2350   -1.4560 hc        1 MOL     -0.020328
    174 H83        -2.9250    0.8630   -0.8060 hc        1 MOL     -0.020328
    175 H84        -2.3790    1.9570    1.5310 hc        1 MOL      0.000950
    176 H85        -1.2680    2.9800    0.5910 hc        1 MOL      0.000950
    177 N15        -5.2800    2.0870   -2.3540 n         1 MOL     -0.003342
    178 C54        -6.1470    2.3630   -3.5190 c3        1 MOL     -0.267628
    179 H86        -6.7740    3.2290   -3.3080 h1        1 MOL      0.103773
    180 H87        -5.5290    2.5680   -4.3930 h1        1 MOL      0.103773
    181 H88        -6.7790    1.4960   -3.7160 h1        1 MOL      0.103773
    182 H89        -5.2330    1.1100   -2.0820 hn        1 MOL      0.065156
    183 Ca1         1.5710   -0.9330    1.2290 Ca        1 MOL      1.792322
    184 O25         0.4470   -3.3230    1.5220 oh        1 MOL     -0.841758
    185 H90         1.0240   -3.8570    0.9780 ho        1 MOL      0.406705
    186 H91         0.0210   -3.9590    2.0980 ho        1 MOL      0.406705
    187 O26        -0.1060   -0.7860    3.3580 oh        1 MOL     -0.841758
    188 H92        -0.0730   -1.5040    3.9930 ho        1 MOL      0.406705
    189 H93         0.2750   -0.0360    3.8310 ho        1 MOL      0.406705
@<TRIPOS>BOND
     1    1    2 1   
     2    1    4 1   
     3    1    5 1   
     4    1    6 1   
     5    2    3 2   
     6    2    7 1   
     7    7    8 1   
     8    7   15 1   
     9    8    9 1   
    10    8   11 1   
    11    8   16 1   
    12    9   10 2   
    13    9   19 1   
    14   11   12 1   
    15   11   17 1   
    16   11   18 1   
    17   12   13 1   
    18   12   14 1   
    19   19   20 1   
    20   19   28 1   
    21   20   21 1   
    22   20   23 1   
    23   20   29 1   
    24   21   22 2   
    25   21   41 1   
    26   23   24 1   
    27   23   30 1   
    28   23   31 1   
    29   24   25 1   
    30   24   32 1   
    31   24   33 1   
    32   25   26 1   
    33   25   34 1   
    34   25   35 1   
    35   26   27 1   
    36   26   36 1   
    37   26   37 1   
    38   27   38 1   
    39   27   39 1   
    40   27   40 1   
    41   41   42 1   
    42   41   49 1   
    43   42   43 1   
    44   42   45 1   
    45   42   50 1   
    46   43   44 2   
    47   43   53 1   
    48   45   46 1   
    49   45   51 1   
    50   45   52 1   
    51   46   47 1   
    52   46   48 1   
    53   53   54 1   
    54   53   57 1   
    55   54   55 1   
    56   54   58 1   
    57   54   59 1   
    58   55   56 2   
    59   55   60 1   
    60   60   61 1   
    61   60   68 1   
    62   61   62 1   
    63   61   64 1   
    64   61   69 1   
    65   62   63 2   
    66   62   72 1   
    67   64   65 1   
    68   64   70 1   
    69   64   71 1   
    70   65   66 1   
    71   65   67 1   
    72   72   73 1   
    73   72   76 1   
    74   73   74 1   
    75   73   77 1   
    76   73   78 1   
    77   74   75 2   
    78   74   79 1   
    79   79   80 1   
    80   79   86 1   
    81   80   81 1   
    82   80   83 1   
    83   80   87 1   
    84   81   82 2   
    85   81   93 1   
    86   83   84 1   
    87   83   85 1   
    88   83   88 1   
    89   84   90 1   
    90   84   91 1   
    91   84   92 1   
    92   85   89 1   
    93   93   94 1   
    94   93  101 1   
    95   94   95 1   
    96   94   97 1   
    97   94  102 1   
    98   95   96 2   
    99   95  112 1   
   100   97   98 1   
   101   97   99 1   
   102   97  103 1   
   103   98  100 1   
   104   98  104 1   
   105   98  105 1   
   106   99  106 1   
   107   99  107 1   
   108   99  108 1   
   109  100  109 1   
   110  100  110 1   
   111  100  111 1   
   112  112  113 1   
   113  112  119 1   
   114  113  114 1   
   115  113  116 1   
   116  113  120 1   
   117  114  115 2   
   118  114  126 1   
   119  116  117 1   
   120  116  118 1   
   121  116  121 1   
   122  117  123 1   
   123  117  124 1   
   124  117  125 1   
   125  118  122 1   
   126  126  127 1   
   127  126  133 1   
   128  127  128 1   
   129  127  130 1   
   130  127  134 1   
   131  128  129 2   
   132  128  140 1   
   133  130  131 1   
   134  130  132 1   
   135  130  135 1   
   136  131  137 1   
   137  131  138 1   
   138  131  139 1   
   139  132  136 1   
   140  140  141 1   
   141  140  149 1   
   142  141  142 1   
   143  141  144 1   
   144  141  150 1   
   145  142  143 2   
   146  142  162 1   
   147  144  145 1   
   148  144  151 1   
   149  144  152 1   
   150  145  146 1   
   151  145  153 1   
   152  145  154 1   
   153  146  147 1   
   154  146  155 1   
   155  146  156 1   
   156  147  148 1   
   157  147  157 1   
   158  147  158 1   
   159  148  159 1   
   160  148  160 1   
   161  148  161 1   
   162  162  163 1   
   163  162  171 1   
   164  163  164 1   
   165  163  166 1   
   166  163  172 1   
   167  164  165 2   
   168  164  177 1   
   169  166  167 1   
   170  166  173 1   
   171  166  174 1   
   172  167  168 1   
   173  167  175 1   
   174  167  176 1   
   175  168  169 1   
   176  168  170 1   
   177  177  178 1   
   178  177  182 1   
   179  178  179 1   
   180  178  180 1   
   181  178  181 1   
   182  184  185 1   
   183  184  186 1   
   184  187  188 1   
   185  187  189 1   
@<TRIPOS>SUBSTRUCTURE
     1 MOL         1 TEMP              0 ****  ****    0 ROOT
