@<TRIPOS>MOLECULE
MOL
  183   181     1     0     0
SMALL
resp


@<TRIPOS>ATOM
      1 C1          0.7910    2.2110   -6.1840 c3        1 MOL     -0.445014
      2 C2          1.1440    2.0290   -4.7490 c         1 MOL      0.778339
      3 O1          0.3910    2.3400   -3.8380 o         1 MOL     -0.585425
      4 H1          1.6990    2.1930   -6.7870 hc        1 MOL      0.110355
      5 H2          0.1290    1.4040   -6.5000 hc        1 MOL      0.110355
      6 H3          0.2870    3.1670   -6.3160 hc        1 MOL      0.110355
      7 N1          2.2700    1.4420   -4.3850 n         1 MOL     -0.630810
      8 C3          2.7690    1.2610   -2.9720 c3        1 MOL      0.438075
      9 C4          3.2490    2.7140   -2.4660 c         1 MOL      0.298908
     10 O2          4.2150    3.3460   -2.9220 o         1 MOL     -0.540432
     11 C5          3.8930    0.2050   -2.8200 c3        1 MOL     -0.467521
     12 C6          4.4900    0.1360   -1.4050 c         1 MOL      0.733652
     13 O3          5.6250   -0.2670   -1.2640 o         1 MOL     -0.588651
     14 O4          3.7980    0.4870   -0.4490 o         1 MOL     -0.588651
     15 H4          2.9580    1.2210   -5.0870 hn        1 MOL      0.293618
     16 H5          1.9520    0.8700   -2.3570 h1        1 MOL     -0.020559
     17 H6          4.6440    0.3600   -3.6050 hc        1 MOL      0.088562
     18 H7          3.4090   -0.7590   -2.9520 hc        1 MOL      0.088562
     19 N2          2.5400    3.2810   -1.4480 n         1 MOL     -0.196165
     20 C7          2.8490    4.6350   -0.9420 c3        1 MOL     -0.108876
     21 C8          3.8080    4.6110    0.2740 c         1 MOL      0.521507
     22 O5          4.3880    5.6500    0.5060 o         1 MOL     -0.554265
     23 C9          1.5380    5.4020   -0.6700 c3        1 MOL      0.320352
     24 C10         0.9770    5.6740   -2.0610 c3        1 MOL      0.174120
     25 C11         1.7810    6.7240    0.0420 c3        1 MOL     -0.251611
     26 C12        -0.3400    6.4840   -1.9940 c3        1 MOL     -0.044082
     27 H8          1.7390    2.7810   -1.0850 hn        1 MOL      0.189036
     28 H9          3.3670    5.2470   -1.6770 h1        1 MOL      0.088009
     29 H10         0.8280    4.8180   -0.0910 hc        1 MOL     -0.063138
     30 H11         0.7490    4.7450   -2.5800 hc        1 MOL     -0.072571
     31 H12         1.6660    6.3270   -2.5950 hc        1 MOL     -0.072571
     32 H13         2.5790    7.3180   -0.4080 hc        1 MOL      0.044705
     33 H14         0.8670    7.2970    0.1610 hc        1 MOL      0.044705
     34 H15         2.0470    6.5800    1.0840 hc        1 MOL      0.044705
     35 H16        -1.1840    6.0040   -1.4890 hc        1 MOL     -0.017464
     36 H17        -0.1800    7.4760   -1.5750 hc        1 MOL     -0.017464
     37 H18        -0.6780    6.6300   -3.0210 hc        1 MOL     -0.017464
     38 N3          3.9850    3.4010    0.8670 n         1 MOL     -0.277834
     39 C13         5.0550    3.2100    1.8650 c3        1 MOL     -0.036728
     40 C14         6.4280    2.9610    1.3340 c         1 MOL      0.532694
     41 O6          7.3930    3.5360    1.8210 o         1 MOL     -0.552249
     42 C15         4.6710    2.1130    2.9200 c3        1 MOL      0.028035
     43 C16         3.2420    2.1220    3.4660 c         1 MOL      0.721037
     44 O7          2.3900    1.3820    2.9880 o         1 MOL     -0.709340
     45 O8          2.8970    2.9160    4.3380 o         1 MOL     -0.709340
     46 H19         3.5680    2.5880    0.4540 hn        1 MOL      0.161199
     47 H20         5.1990    4.0960    2.4910 h1        1 MOL      0.064165
     48 H21         5.2690    2.3180    3.8090 hc        1 MOL     -0.023783
     49 H22         4.8670    1.1160    2.5240 hc        1 MOL     -0.023783
     50 N4          6.6030    2.0790    0.3260 n         1 MOL     -0.399036
     51 C17         7.9160    1.3130    0.1080 c3        1 MOL     -0.046878
     52 C18         8.1330    0.0360    0.9640 c         1 MOL      0.530412
     53 O9          9.3100   -0.2800    1.2430 o         1 MOL     -0.604985
     54 H23         5.7980    1.7160   -0.1630 hn        1 MOL      0.271541
     55 H24         8.7430    2.0120    0.1900 h1        1 MOL      0.068528
     56 H25         7.8780    0.9620   -0.9180 h1        1 MOL      0.068528
     57 N5          7.0380   -0.6100    1.4060 n         1 MOL     -0.174627
     58 C19         7.1100   -1.9950    1.9050 c3        1 MOL      0.050533
     59 C20         6.9240   -3.1260    0.8950 c         1 MOL      0.305303
     60 O10         7.0600   -4.3280    1.1720 o         1 MOL     -0.535959
     61 C21         6.0720   -2.0750    3.0060 c3        1 MOL     -0.295596
     62 C22         4.7070   -1.6210    2.5440 c         1 MOL      0.712685
     63 O11         3.9680   -0.9780    3.3250 o         1 MOL     -0.693392
     64 O12         4.3490   -1.8240    1.3910 o         1 MOL     -0.693392
     65 H26         6.2020   -0.3710    0.9110 hn        1 MOL      0.029963
     66 H27         8.0730   -2.1750    2.3920 h1        1 MOL      0.108133
     67 H28         6.4360   -1.4620    3.8370 hc        1 MOL      0.079070
     68 H29         6.0110   -3.1300    3.2650 hc        1 MOL      0.079070
     69 N6          6.7410   -2.7850   -0.3900 n         1 MOL     -0.054833
     70 C23         6.8870   -3.6150   -1.5850 c3        1 MOL     -0.190828
     71 C24         5.5420   -4.3550   -1.7840 c         1 MOL      0.563907
     72 O13         5.4640   -5.3540   -2.5260 o         1 MOL     -0.588325
     73 H30         6.5960   -1.8040   -0.5880 hn        1 MOL      0.139522
     74 H31         7.7650   -4.2090   -1.3030 h1        1 MOL      0.091022
     75 H32         7.1690   -2.9910   -2.4320 h1        1 MOL      0.091022
     76 N7          4.4660   -3.8740   -1.1230 n         1 MOL     -0.257474
     77 C25         3.1080   -4.3950   -1.2720 c3        1 MOL     -0.041056
     78 C26         2.1070   -3.2100   -1.4020 c         1 MOL      0.505319
     79 O14         2.3500   -2.0920   -0.9670 o         1 MOL     -0.577713
     80 C27         2.8840   -5.3870   -0.1040 c3        1 MOL     -0.104475
     81 C28         2.9460   -4.8380    1.3350 c3        1 MOL     -0.013849
     82 C29         1.8300   -4.0980    1.8700 c         1 MOL      0.653858
     83 N8          1.3350   -4.4050    3.1000 n         1 MOL     -0.858222
     84 O15         1.4120   -3.0930    1.3840 o         1 MOL     -0.597004
     85 H33         4.4730   -3.0070   -0.6050 hn        1 MOL      0.231554
     86 H34         3.0290   -5.0480   -2.1320 h1        1 MOL      0.052130
     87 H35         3.7290   -6.0880   -0.0900 hc        1 MOL      0.048213
     88 H36         2.0130   -6.0310   -0.2270 hc        1 MOL      0.048213
     89 H37         3.8340   -4.2900    1.6170 hc        1 MOL      0.028994
     90 H38         3.0320   -5.7610    1.9120 hc        1 MOL      0.028994
     91 H39         1.5820   -5.2340    3.6290 hn        1 MOL      0.377760
     92 H40         0.7080   -3.7030    3.4760 hn        1 MOL      0.377760
     93 N9          0.9800   -3.5580   -1.9630 n         1 MOL     -0.368245
     94 C30        -0.1670   -2.6240   -2.0870 c3        1 MOL     -0.032346
     95 C31        -1.3200   -3.1990   -1.2480 c         1 MOL      0.414795
     96 O16        -1.9890   -4.1530   -1.6430 o         1 MOL     -0.547676
     97 C32        -0.5270   -2.3520   -3.5190 c3        1 MOL      0.440691
     98 C33        -1.6520   -1.3330   -3.7700 c3        1 MOL     -0.320058
     99 C34         0.6860   -1.9650   -4.3550 c3        1 MOL     -0.320058
    100 H41         0.8910   -4.4790   -2.3820 hn        1 MOL      0.273639
    101 H42         0.2140   -1.6670   -1.7400 h1        1 MOL      0.139381
    102 H43        -0.8420   -3.3020   -3.9570 hc        1 MOL     -0.084011
    103 H44        -1.4730   -0.3760   -3.2840 hc        1 MOL      0.056468
    104 H45        -1.7340   -1.1160   -4.8430 hc        1 MOL      0.056468
    105 H46        -2.6060   -1.7670   -3.4660 hc        1 MOL      0.056468
    106 H47         1.3000   -2.8550   -4.4940 hc        1 MOL      0.056468
    107 H48         0.3550   -1.6370   -5.3420 hc        1 MOL      0.056468
    108 H49         1.2620   -1.1790   -3.8750 hc        1 MOL      0.056468
    109 N10        -1.6750   -2.4460   -0.1220 n         1 MOL     -0.266706
    110 C35        -2.8860   -2.6630    0.7050 c3        1 MOL      0.082366
    111 C36        -4.1360   -1.9550    0.1820 c         1 MOL      0.517994
    112 O17        -3.9930   -1.1470   -0.7240 o         1 MOL     -0.341063
    113 C37        -2.5250   -2.1580    2.1870 c3        1 MOL     -0.444454
    114 C38        -2.9550   -0.7640    2.6050 c         1 MOL      0.607499
    115 N11        -2.0830    0.2270    2.5880 n         1 MOL     -0.662646
    116 O18        -4.1040   -0.4880    2.9490 o         1 MOL     -0.525131
    117 H50        -1.1840   -1.5620   -0.0270 hn        1 MOL      0.156342
    118 H51        -3.0800   -3.7360    0.6900 h1        1 MOL      0.078565
    119 H52        -1.4900   -2.1950    2.4930 hc        1 MOL      0.141986
    120 H53        -3.0930   -2.8030    2.8600 hc        1 MOL      0.141986
    121 H54        -1.1430    0.0530    2.2730 hn        1 MOL      0.351173
    122 H55        -2.3290    1.1550    2.8770 hn        1 MOL      0.351173
    123 N12        -5.3030   -2.3000    0.7840 n         1 MOL     -0.735354
    124 C39        -6.6020   -1.8510    0.1680 c3        1 MOL      0.405970
    125 C40        -6.7950   -0.3140    0.3210 c         1 MOL      0.484673
    126 O19        -7.4150    0.3040   -0.5320 o         1 MOL     -0.512346
    127 C41        -7.7440   -2.6340    0.7470 c3        1 MOL     -0.254196
    128 C42        -9.0190   -2.2050    0.1260 ca        1 MOL     -0.001346
    129 C43        -9.2240   -2.5960   -1.2660 ca        1 MOL     -0.102117
    130 C44       -10.0100   -1.4300    0.7930 ca        1 MOL     -0.102117
    131 C45       -10.4120   -2.2060   -1.9190 ca        1 MOL     -0.378444
    132 C46       -11.1740   -1.0600    0.1360 ca        1 MOL     -0.378444
    133 C47       -11.4000   -1.3920   -1.1980 ca        1 MOL      0.448395
    134 O20       -12.4670   -0.9590   -1.8410 oh        1 MOL     -0.501589
    135 H56        -5.4660   -2.9180    1.5640 hn        1 MOL      0.349419
    136 H57        -6.5790   -2.0550   -0.9060 h1        1 MOL      0.003461
    137 H58        -7.8350   -2.2830    1.7760 hc        1 MOL      0.071909
    138 H59        -7.6280   -3.7180    0.6860 hc        1 MOL      0.071909
    139 H60        -8.4940   -3.2440   -1.7250 ha        1 MOL      0.136449
    140 H61        -9.7530   -1.0060    1.7540 ha        1 MOL      0.136449
    141 H62       -10.5380   -2.4720   -2.9560 ha        1 MOL      0.172932
    142 H63       -11.7770   -0.3530    0.6870 ha        1 MOL      0.172932
    143 H64       -13.0580   -0.5550   -1.1980 ho        1 MOL      0.358318
    144 N13        -6.1900    0.3020    1.3140 n         1 MOL     -0.348829
    145 C48        -6.1130    1.8000    1.4100 c3        1 MOL      0.101804
    146 C49        -5.3040    2.4470    0.3300 c         1 MOL      0.248946
    147 O21        -5.4910    3.6020   -0.0040 o         1 MOL     -0.490505
    148 C50        -5.7680    2.2240    2.8850 c3        1 MOL     -0.089322
    149 C51        -7.0180    1.9210    3.7800 c3        1 MOL     -0.263054
    150 C52        -6.7930    1.9190    5.3160 c         1 MOL      0.800454
    151 O22        -5.9170    2.6520    5.8520 o         1 MOL     -0.772318
    152 O23        -7.5470    1.2470    5.9980 o         1 MOL     -0.772318
    153 H65        -5.6130   -0.2380    1.9340 hn        1 MOL      0.250366
    154 H66        -7.1250    2.1760    1.2200 h1        1 MOL      0.052550
    155 H67        -5.6130    3.3070    2.9120 hc        1 MOL      0.056105
    156 H68        -4.8870    1.6780    3.2080 hc        1 MOL      0.056105
    157 H69        -7.3720    0.9340    3.5180 hc        1 MOL      0.035883
    158 H70        -7.7400    2.7260    3.6070 hc        1 MOL      0.035883
    159 N14        -4.3120    1.7080   -0.1920 n         1 MOL     -0.094923
    160 C53        -3.5360    2.2010   -1.3530 c3        1 MOL     -0.043754
    161 C54        -4.1750    1.8960   -2.7160 c         1 MOL      0.407152
    162 O24        -4.1720    2.7310   -3.6550 o         1 MOL     -0.562337
    163 C55        -2.0910    1.5460   -1.4070 c3        1 MOL      0.136392
    164 C56        -1.2810    2.1180   -0.2270 c3        1 MOL     -0.050450
    165 C57        -0.1120    1.2000    0.1800 c         1 MOL      0.709059
    166 O25         0.9940    1.6760    0.3890 o         1 MOL     -0.752487
    167 O26        -0.2980   -0.0210    0.3190 o         1 MOL     -0.752487
    168 H71        -4.1610    0.8040    0.2360 hn        1 MOL      0.161203
    169 H72        -3.4290    3.2760   -1.2520 h1        1 MOL      0.086895
    170 H73        -1.5870    1.6940   -2.3720 hc        1 MOL      0.004477
    171 H74        -2.2580    0.4920   -1.1970 hc        1 MOL      0.004477
    172 H75        -1.9060    2.3690    0.6300 hc        1 MOL      0.007274
    173 H76        -1.0250    3.0740   -0.6870 hc        1 MOL      0.007274
    174 N15        -4.8330    0.7220   -2.8200 n         1 MOL     -0.047484
    175 C58        -5.6410    0.2830   -3.9020 c3        1 MOL     -0.148469
    176 H77        -6.6780    0.2110   -3.5750 h1        1 MOL      0.054706
    177 H78        -5.5680    0.9960   -4.7230 h1        1 MOL      0.054706
    178 H79        -5.2980   -0.6950   -4.2390 h1        1 MOL      0.054706
    179 H80        -4.7900    0.0830   -2.0450 hn        1 MOL      0.052261
    180 Ca1         2.1500   -0.5400    1.2180 Ca        1 MOL      1.686370
    181 O27         0.7060   -0.7140    3.4870 oh        1 MOL     -0.776788
    182 H81        -0.0110   -0.9310    4.0880 ho        1 MOL      0.372981
    183 H82         0.8960    0.2130    3.6600 ho        1 MOL      0.372981
@<TRIPOS>BOND
     1    1    2 1   
     2    1    4 1   
     3    1    5 1   
     4    1    6 1   
     5    2    3 2   
     6    2    7 1   
     7    7    8 1   
     8    7   15 1   
     9    8    9 1   
    10    8   11 1   
    11    8   16 1   
    12    9   10 2   
    13    9   19 1   
    14   11   12 1   
    15   11   17 1   
    16   11   18 1   
    17   12   13 1   
    18   12   14 1   
    19   19   20 1   
    20   19   27 1   
    21   20   21 1   
    22   20   23 1   
    23   20   28 1   
    24   21   22 2   
    25   21   38 1   
    26   23   24 1   
    27   23   25 1   
    28   23   29 1   
    29   24   26 1   
    30   24   30 1   
    31   24   31 1   
    32   25   32 1   
    33   25   33 1   
    34   25   34 1   
    35   26   35 1   
    36   26   36 1   
    37   26   37 1   
    38   38   39 1   
    39   38   46 1   
    40   39   40 1   
    41   39   42 1   
    42   39   47 1   
    43   40   41 2   
    44   40   50 1   
    45   42   43 1   
    46   42   48 1   
    47   42   49 1   
    48   43   44 1   
    49   43   45 1   
    50   50   51 1   
    51   50   54 1   
    52   51   52 1   
    53   51   55 1   
    54   51   56 1   
    55   52   53 2   
    56   52   57 1   
    57   57   58 1   
    58   57   65 1   
    59   58   59 1   
    60   58   61 1   
    61   58   66 1   
    62   59   60 2   
    63   59   69 1   
    64   61   62 1   
    65   61   67 1   
    66   61   68 1   
    67   62   63 1   
    68   62   64 1   
    69   69   70 1   
    70   69   73 1   
    71   70   71 1   
    72   70   74 1   
    73   70   75 1   
    74   71   72 2   
    75   71   76 1   
    76   76   77 1   
    77   76   85 1   
    78   77   78 1   
    79   77   80 1   
    80   77   86 1   
    81   78   79 2   
    82   78   93 1   
    83   80   81 1   
    84   80   87 1   
    85   80   88 1   
    86   81   82 1   
    87   81   89 1   
    88   81   90 1   
    89   82   83 1   
    90   82   84 2   
    91   83   91 1   
    92   83   92 1   
    93   93   94 1   
    94   93  100 1   
    95   94   95 1   
    96   94   97 1   
    97   94  101 1   
    98   95   96 2   
    99   95  109 1   
   100   97   98 1   
   101   97   99 1   
   102   97  102 1   
   103   98  103 1   
   104   98  104 1   
   105   98  105 1   
   106   99  106 1   
   107   99  107 1   
   108   99  108 1   
   109  109  110 1   
   110  109  117 1   
   111  110  111 1   
   112  110  113 1   
   113  110  118 1   
   114  111  112 2   
   115  111  123 1   
   116  113  114 1   
   117  113  119 1   
   118  113  120 1   
   119  114  115 1   
   120  114  116 2   
   121  115  121 1   
   122  115  122 1   
   123  123  124 1   
   124  123  135 1   
   125  124  125 1   
   126  124  127 1   
   127  124  136 1   
   128  125  126 2   
   129  125  144 1   
   130  127  128 1   
   131  127  137 1   
   132  127  138 1   
   133  128  129 ar  
   134  128  130 ar  
   135  129  131 ar  
   136  129  139 1   
   137  130  132 ar  
   138  130  140 1   
   139  131  133 ar  
   140  131  141 1   
   141  132  133 ar  
   142  132  142 1   
   143  133  134 1   
   144  134  143 1   
   145  144  145 1   
   146  144  153 1   
   147  145  146 1   
   148  145  148 1   
   149  145  154 1   
   150  146  147 2   
   151  146  159 1   
   152  148  149 1   
   153  148  155 1   
   154  148  156 1   
   155  149  150 1   
   156  149  157 1   
   157  149  158 1   
   158  150  151 1   
   159  150  152 1   
   160  159  160 1   
   161  159  168 1   
   162  160  161 1   
   163  160  163 1   
   164  160  169 1   
   165  161  162 2   
   166  161  174 1   
   167  163  164 1   
   168  163  170 1   
   169  163  171 1   
   170  164  165 1   
   171  164  172 1   
   172  164  173 1   
   173  165  166 1   
   174  165  167 1   
   175  174  175 1   
   176  174  179 1   
   177  175  176 1   
   178  175  177 1   
   179  175  178 1   
   180  181  182 1   
   181  181  183 1   
@<TRIPOS>SUBSTRUCTURE
     1 MOL         1 TEMP              0 ****  ****    0 ROOT
