@<TRIPOS>MOLECULE
MOL
  175   173     1     0     0
SMALL
resp


@<TRIPOS>ATOM
      1 C1         -1.0440    3.0170    6.0450 c3        1 MOL     -0.232614
      2 C2         -1.3260    2.3680    4.6260 c         1 MOL      0.786205
      3 O1         -0.3800    2.3280    3.8430 o         1 MOL     -0.624509
      4 H1         -1.5380    2.4300    6.8180 hc        1 MOL      0.049039
      5 H2          0.0300    3.0320    6.2310 hc        1 MOL      0.049039
      6 H3         -1.4300    4.0370    6.0620 hc        1 MOL      0.049039
      7 N1         -2.5360    1.9440    4.2860 n         1 MOL     -0.767594
      8 C3         -2.8090    1.7340    2.8580 c3        1 MOL      0.195060
      9 C4         -3.1450    3.1190    2.3070 c         1 MOL      0.760707
     10 O2         -4.0790    3.7840    2.8250 o         1 MOL     -0.652499
     11 C5         -3.9000    0.7590    2.7960 c3        1 MOL      0.011981
     12 C6         -4.3970    0.4710    1.4190 c         1 MOL      0.540135
     13 O3         -5.4040   -0.2980    1.3870 o         1 MOL     -0.560770
     14 O4         -3.8500    1.0200    0.4150 o         1 MOL     -0.560770
     15 H4         -3.2520    2.0510    4.9780 hn        1 MOL      0.369137
     16 H5         -1.9380    1.3170    2.3560 h1        1 MOL     -0.019583
     17 H6         -4.6760    1.1640    3.4360 hc        1 MOL     -0.005773
     18 H7         -3.5580   -0.1750    3.2540 hc        1 MOL     -0.005773
     19 N2         -2.4220    3.5640    1.3140 n         1 MOL     -0.561421
     20 C7         -2.2560    4.9420    0.8630 c3        1 MOL      0.099843
     21 C8         -2.6000    5.2850   -0.5650 c         1 MOL      0.439168
     22 O5         -2.5100    6.4700   -1.0220 o         1 MOL     -0.542381
     23 C9         -0.8840    5.3770    1.1750 c3        1 MOL     -0.261307
     24 H8         -1.8530    2.8550    0.8650 hn        1 MOL      0.385848
     25 H9         -3.0280    5.4850    1.4180 h1        1 MOL      0.070575
     26 H10        -0.8040    6.4370    0.9410 hc        1 MOL      0.082895
     27 H11        -0.6590    5.2670    2.2350 hc        1 MOL      0.082895
     28 H12        -0.1290    4.8420    0.5940 hc        1 MOL      0.082895
     29 N3         -3.0170    4.2700   -1.3280 n         1 MOL     -0.286303
     30 C10        -3.9880    4.4700   -2.4420 c3        1 MOL     -0.095159
     31 C11        -5.3630    3.8450   -2.1150 c         1 MOL      0.477966
     32 O6         -6.3590    4.1630   -2.6860 o         1 MOL     -0.539880
     33 C12        -3.4120    3.9400   -3.7900 c3        1 MOL     -0.005682
     34 C13        -2.9720    2.4510   -3.7760 c         1 MOL      0.682455
     35 O7         -3.0290    1.9050   -2.6390 o         1 MOL     -0.702089
     36 O8         -2.4310    1.9150   -4.8000 o         1 MOL     -0.702089
     37 H13        -2.8340    3.3060   -1.1050 hn        1 MOL      0.298477
     38 H14        -4.1150    5.5530   -2.5020 h1        1 MOL      0.097646
     39 H15        -2.5650    4.6160   -3.8860 hc        1 MOL      0.016725
     40 H16        -4.0340    4.1080   -4.6620 hc        1 MOL      0.016725
     41 N4         -5.4650    2.8790   -1.1760 n         1 MOL      0.037527
     42 C14        -6.7100    2.3180   -0.6180 c3        1 MOL     -0.184729
     43 C15        -7.2600    1.0840   -1.2810 c         1 MOL      0.562769
     44 O9         -8.1590    1.2080   -2.1400 o         1 MOL     -0.561111
     45 H17        -4.5960    2.4590   -0.8540 hn        1 MOL     -0.141779
     46 H18        -7.4860    3.0840   -0.5230 h1        1 MOL      0.081778
     47 H19        -6.4050    1.9290    0.3500 h1        1 MOL      0.081778
     48 N5         -6.6230   -0.1160   -1.1810 n         1 MOL     -0.296048
     49 C16        -6.9550   -1.4370   -1.8300 c3        1 MOL      0.097160
     50 C17        -7.1300   -2.5710   -0.7640 c         1 MOL      0.451974
     51 O10        -7.5640   -3.6640   -1.1360 o         1 MOL     -0.560771
     52 C18        -6.0650   -1.8930   -2.9710 c3        1 MOL     -0.151643
     53 C19        -4.6620   -2.3060   -2.4230 c         1 MOL      0.368931
     54 N6         -3.8840   -3.1610   -2.9780 n         1 MOL     -0.506373
     55 O11        -4.2180   -1.8180   -1.3770 o         1 MOL     -0.484998
     56 H20        -5.8960   -0.1690   -0.4750 hn        1 MOL      0.026189
     57 H21        -7.9560   -1.2720   -2.2230 h1        1 MOL      0.056760
     58 H22        -5.9300   -1.0750   -3.6820 hc        1 MOL      0.090974
     59 H23        -6.5400   -2.7200   -3.5080 hc        1 MOL      0.090974
     60 H24        -4.0200   -3.4590   -3.9300 hn        1 MOL      0.306239
     61 H25        -3.0600   -3.3980   -2.4470 hn        1 MOL      0.306239
     62 N7         -6.7960   -2.3890    0.5330 n         1 MOL     -0.300180
     63 C20        -6.8060   -3.4380    1.4950 c3        1 MOL     -0.018334
     64 C21        -5.4160   -3.8350    1.9530 c         1 MOL      0.399058
     65 O12        -5.3500   -4.4900    3.0520 o         1 MOL     -0.576479
     66 H26        -6.3690   -1.5480    0.8780 hn        1 MOL      0.213857
     67 H27        -7.4610   -4.2720    1.2330 h1        1 MOL      0.075014
     68 H28        -7.3620   -3.0500    2.3460 h1        1 MOL      0.075014
     69 N8         -4.4210   -3.5500    1.1560 n         1 MOL     -0.164189
     70 C22        -3.0550   -4.1360    1.4370 c3        1 MOL     -0.116034
     71 C23        -2.0030   -3.0280    1.2890 c         1 MOL      0.591904
     72 O13        -2.2140   -2.0740    0.5560 o         1 MOL     -0.598755
     73 C24        -2.7060   -5.2750    0.5180 c3        1 MOL      0.365475
     74 C25        -3.6370   -6.5170    0.8260 c3        1 MOL     -0.459319
     75 O14        -2.9270   -4.8660   -0.7960 oh        1 MOL     -0.562905
     76 H29        -4.6380   -3.0690    0.2900 hn        1 MOL      0.247460
     77 H30        -2.9740   -4.4980    2.4550 h1        1 MOL      0.088494
     78 H31        -1.6480   -5.5190    0.6270 h1        1 MOL     -0.001736
     79 H32        -3.2300   -5.5790   -1.3550 ho        1 MOL      0.365250
     80 H33        -4.5750   -6.2140    0.3730 hc        1 MOL      0.121340
     81 H34        -3.2680   -7.4090    0.3150 hc        1 MOL      0.121340
     82 H35        -3.8010   -6.6350    1.9000 hc        1 MOL      0.121340
     83 N9         -0.8210   -3.1580    1.9390 n         1 MOL     -0.388823
     84 C26         0.3870   -2.2280    1.8490 c3        1 MOL     -0.131598
     85 C27         1.4800   -2.7850    0.9240 c         1 MOL      0.395573
     86 O15         1.9190   -3.8700    1.0910 o         1 MOL     -0.551949
     87 C28         0.9390   -1.5970    3.1790 c3        1 MOL      0.418737
     88 C29         1.9640   -2.3020    4.1240 c3        1 MOL     -0.209316
     89 C30        -0.1890   -0.9390    3.9720 c3        1 MOL     -0.316192
     90 C31         2.5900   -1.3090    5.1560 c3        1 MOL     -0.204656
     91 H36        -0.7820   -3.9330    2.5850 hn        1 MOL      0.249908
     92 H37        -0.0720   -1.3650    1.3630 h1        1 MOL      0.055688
     93 H38         1.4710   -0.7000    2.8640 hc        1 MOL     -0.070490
     94 H39         2.7160   -2.5970    3.3910 hc        1 MOL      0.033639
     95 H40         1.5290   -3.1760    4.6020 hc        1 MOL      0.033639
     96 H41        -0.8200   -0.4200    3.2600 hc        1 MOL      0.068173
     97 H42        -0.7360   -1.7950    4.3670 hc        1 MOL      0.068173
     98 H43         0.2340   -0.2780    4.7380 hc        1 MOL      0.068173
     99 H44         2.8550   -0.3860    4.6430 hc        1 MOL      0.070371
    100 H45         1.9370   -1.0790    5.9900 hc        1 MOL      0.070371
    101 H46         3.3970   -1.8670    5.6480 hc        1 MOL      0.070371
    102 N10         1.9570   -2.0320   -0.0540 n         1 MOL     -0.142907
    103 C32         3.0920   -2.3550   -0.8560 c3        1 MOL     -0.110518
    104 C33         4.4180   -1.8000   -0.2270 c         1 MOL      0.531420
    105 O16         4.4380   -1.0540    0.7420 o         1 MOL     -0.389717
    106 C34         2.7070   -1.8630   -2.3270 c3        1 MOL     -0.126441
    107 C35         3.6420   -2.2200   -3.4570 c         1 MOL      0.645761
    108 O17         3.3160   -1.7820   -4.5580 o         1 MOL     -0.680034
    109 O18         4.6750   -2.9900   -3.3190 o         1 MOL     -0.680034
    110 H47         1.5730   -1.1300   -0.2830 hn        1 MOL      0.488391
    111 H48         3.1170   -3.4440   -0.9450 h1        1 MOL      0.077116
    112 H49         2.5810   -0.7800   -2.2770 hc        1 MOL      0.001574
    113 H50         1.6840   -2.1480   -2.5590 hc        1 MOL      0.001574
    114 N11         5.6000   -2.0500   -0.8850 n         1 MOL     -0.620322
    115 C36         6.8770   -1.5230   -0.4460 c3        1 MOL      0.481705
    116 C37         6.9610    0.0430   -0.2940 c         1 MOL      0.436156
    117 O19         7.4820    0.4280    0.7700 o         1 MOL     -0.549626
    118 C38         7.9290   -2.1060   -1.3450 c3        1 MOL     -0.142558
    119 C39         9.3520   -1.5150   -1.2640 ca        1 MOL     -0.004363
    120 C40        10.0880   -1.4270   -0.0620 ca        1 MOL     -0.135791
    121 C41         9.8980   -0.9580   -2.4060 ca        1 MOL     -0.135791
    122 C42        11.3670   -0.9050   -0.0070 ca        1 MOL     -0.077515
    123 C43        11.1740   -0.4010   -2.4000 ca        1 MOL     -0.077515
    124 C44        11.9480   -0.3970   -1.2380 ca        1 MOL     -0.173877
    125 H51         5.6140   -2.5790   -1.7430 hn        1 MOL      0.240058
    126 H52         7.1150   -1.8370    0.5630 h1        1 MOL     -0.024731
    127 H53         7.6130   -2.0090   -2.3810 hc        1 MOL      0.061670
    128 H54         7.9490   -3.1570   -1.0850 hc        1 MOL      0.061670
    129 H55         9.6500   -1.8250    0.8310 ha        1 MOL      0.107409
    130 H56         9.3860   -0.9790   -3.3600 ha        1 MOL      0.107409
    131 H57        11.9600   -0.8840    0.8980 ha        1 MOL      0.095844
    132 H58        11.6220   -0.0770   -3.3290 ha        1 MOL      0.095844
    133 H59        12.9510   -0.0140   -1.3160 ha        1 MOL      0.107323
    134 N12         6.4830    0.9670   -1.1800 n         1 MOL     -0.172269
    135 C45         6.4770    2.4460   -0.9670 c3        1 MOL     -0.014274
    136 C46         5.5560    2.8590    0.1490 c         1 MOL      0.223107
    137 O20         5.6630    3.9700    0.6930 o         1 MOL     -0.492148
    138 C47         5.9760    3.0170   -2.2910 c3        1 MOL     -0.017488
    139 C48         6.2620    1.9560   -3.3310 c3        1 MOL      0.013591
    140 C49         6.0100    0.6880   -2.5190 c3        1 MOL     -0.172150
    141 H60         7.5000    2.8070   -0.8530 h1        1 MOL      0.109472
    142 H61         4.9000    3.1320   -2.2000 hc        1 MOL      0.028118
    143 H62         6.4910    3.9070   -2.6520 hc        1 MOL      0.028118
    144 H63         5.6100    2.0720   -4.2010 hc        1 MOL      0.029718
    145 H64         7.3160    2.0370   -3.6000 hc        1 MOL      0.029718
    146 H65         4.9370    0.5300   -2.4910 h1        1 MOL      0.098462
    147 H66         6.4860   -0.2070   -2.9200 h1        1 MOL      0.098462
    148 N13         4.5400    1.9970    0.5260 n         1 MOL      0.037248
    149 C50         3.5810    2.1930    1.6780 c3        1 MOL     -0.074546
    150 C51         4.3040    1.6730    3.0110 c         1 MOL      0.472484
    151 O21         4.2270    2.3570    4.0270 o         1 MOL     -0.561370
    152 C52         2.2760    1.4580    1.3140 c3        1 MOL      0.211407
    153 C53         1.5540    2.0010    0.0840 c3        1 MOL     -0.177502
    154 C54         0.2550    1.2390   -0.2960 c         1 MOL      1.006210
    155 O22        -0.8640    1.7230   -0.1420 o         1 MOL     -0.928021
    156 O23         0.2650    0.1160   -0.8880 o         1 MOL     -0.928021
    157 H67         4.6410    1.0660    0.1600 hn        1 MOL      0.136498
    158 H68         3.2880    3.2320    1.7990 h1        1 MOL      0.086670
    159 H69         1.5070    1.4950    2.0780 hc        1 MOL     -0.040084
    160 H70         2.4880    0.4240    1.0370 hc        1 MOL     -0.040084
    161 H71         2.2990    1.9550   -0.7190 hc        1 MOL     -0.012475
    162 H72         1.3500    3.0560    0.2480 hc        1 MOL     -0.012475
    163 N14         5.0170    0.5650    2.8450 n         1 MOL     -0.049076
    164 C55         5.8420   -0.0130    3.9260 c3        1 MOL     -0.409140
    165 H73         5.2470   -0.7300    4.4930 h1        1 MOL      0.133463
    166 H74         6.7050   -0.5200    3.4940 h1        1 MOL      0.133463
    167 H75         6.1820    0.7810    4.5900 h1        1 MOL      0.133463
    168 H76         5.0440    0.1590    1.9180 hn        1 MOL      0.037120
    169 Ca1        -2.2620   -0.1850   -1.3120 Ca        1 MOL      1.779029
    170 O24        -0.9750   -2.4210   -1.9150 oh        1 MOL     -0.938622
    171 H77        -0.1620   -2.7240   -1.5200 ho        1 MOL      0.443964
    172 H78        -0.9240   -2.6740   -2.8360 ho        1 MOL      0.443964
    173 O25        -1.9010   -0.6870   -4.0610 oh        1 MOL     -0.938622
    174 H79        -2.0800    0.2360   -4.2080 ho        1 MOL      0.443964
    175 H80        -1.2570   -0.9230   -4.7270 ho        1 MOL      0.443964
@<TRIPOS>BOND
     1    1    2 1   
     2    1    4 1   
     3    1    5 1   
     4    1    6 1   
     5    2    3 2   
     6    2    7 1   
     7    7    8 1   
     8    7   15 1   
     9    8    9 1   
    10    8   11 1   
    11    8   16 1   
    12    9   10 2   
    13    9   19 1   
    14   11   12 1   
    15   11   17 1   
    16   11   18 1   
    17   12   13 1   
    18   12   14 1   
    19   19   20 1   
    20   19   24 1   
    21   20   21 1   
    22   20   23 1   
    23   20   25 1   
    24   21   22 2   
    25   21   29 1   
    26   23   26 1   
    27   23   27 1   
    28   23   28 1   
    29   29   30 1   
    30   29   37 1   
    31   30   31 1   
    32   30   33 1   
    33   30   38 1   
    34   31   32 2   
    35   31   41 1   
    36   33   34 1   
    37   33   39 1   
    38   33   40 1   
    39   34   35 1   
    40   34   36 1   
    41   41   42 1   
    42   41   45 1   
    43   42   43 1   
    44   42   46 1   
    45   42   47 1   
    46   43   44 2   
    47   43   48 1   
    48   48   49 1   
    49   48   56 1   
    50   49   50 1   
    51   49   52 1   
    52   49   57 1   
    53   50   51 2   
    54   50   62 1   
    55   52   53 1   
    56   52   58 1   
    57   52   59 1   
    58   53   54 1   
    59   53   55 2   
    60   54   60 1   
    61   54   61 1   
    62   62   63 1   
    63   62   66 1   
    64   63   64 1   
    65   63   67 1   
    66   63   68 1   
    67   64   65 2   
    68   64   69 1   
    69   69   70 1   
    70   69   76 1   
    71   70   71 1   
    72   70   73 1   
    73   70   77 1   
    74   71   72 2   
    75   71   83 1   
    76   73   74 1   
    77   73   75 1   
    78   73   78 1   
    79   74   80 1   
    80   74   81 1   
    81   74   82 1   
    82   75   79 1   
    83   83   84 1   
    84   83   91 1   
    85   84   85 1   
    86   84   87 1   
    87   84   92 1   
    88   85   86 2   
    89   85  102 1   
    90   87   88 1   
    91   87   89 1   
    92   87   93 1   
    93   88   90 1   
    94   88   94 1   
    95   88   95 1   
    96   89   96 1   
    97   89   97 1   
    98   89   98 1   
    99   90   99 1   
   100   90  100 1   
   101   90  101 1   
   102  102  103 1   
   103  102  110 1   
   104  103  104 1   
   105  103  106 1   
   106  103  111 1   
   107  104  105 2   
   108  104  114 1   
   109  106  107 1   
   110  106  112 1   
   111  106  113 1   
   112  107  108 1   
   113  107  109 1   
   114  114  115 1   
   115  114  125 1   
   116  115  116 1   
   117  115  118 1   
   118  115  126 1   
   119  116  117 2   
   120  116  134 1   
   121  118  119 1   
   122  118  127 1   
   123  118  128 1   
   124  119  120 ar  
   125  119  121 ar  
   126  120  122 ar  
   127  120  129 1   
   128  121  123 ar  
   129  121  130 1   
   130  122  124 ar  
   131  122  131 1   
   132  123  124 ar  
   133  123  132 1   
   134  124  133 1   
   135  134  135 1   
   136  134  140 1   
   137  135  136 1   
   138  135  138 1   
   139  135  141 1   
   140  136  137 2   
   141  136  148 1   
   142  138  139 1   
   143  138  142 1   
   144  138  143 1   
   145  139  140 1   
   146  139  144 1   
   147  139  145 1   
   148  140  146 1   
   149  140  147 1   
   150  148  149 1   
   151  148  157 1   
   152  149  150 1   
   153  149  152 1   
   154  149  158 1   
   155  150  151 2   
   156  150  163 1   
   157  152  153 1   
   158  152  159 1   
   159  152  160 1   
   160  153  154 1   
   161  153  161 1   
   162  153  162 1   
   163  154  155 1   
   164  154  156 1   
   165  163  164 1   
   166  163  168 1   
   167  164  165 1   
   168  164  166 1   
   169  164  167 1   
   170  170  171 1   
   171  170  172 1   
   172  173  174 1   
   173  173  175 1   
@<TRIPOS>SUBSTRUCTURE
     1 MOL         1 TEMP              0 ****  ****    0 ROOT
