@<TRIPOS>MOLECULE
MOL
  176   174     1     0     0
SMALL
resp


@<TRIPOS>ATOM
      1 C1          0.8920    3.3420    5.9790 c3        1 MOL     -0.336619
      2 C2          0.5540    2.9360    4.6070 c         1 MOL      0.845037
      3 O1          1.4850    2.7990    3.8170 o         1 MOL     -0.611477
      4 H1          0.9140    4.4300    6.0400 hc        1 MOL      0.080202
      5 H2          0.1410    2.9560    6.6680 hc        1 MOL      0.080202
      6 H3          1.8720    2.9440    6.2460 hc        1 MOL      0.080202
      7 N1         -0.7420    2.8630    4.2220 n         1 MOL     -0.672991
      8 C3         -1.1150    2.5450    2.8660 c3        1 MOL      0.031026
      9 C4         -1.0460    3.8650    2.0700 c         1 MOL      0.595450
     10 O2         -1.5620    4.9150    2.4000 o         1 MOL     -0.563981
     11 C5         -2.4880    1.8880    2.9010 c3        1 MOL      0.084093
     12 C6         -2.6800    1.2250    1.5210 c         1 MOL      0.694451
     13 O3         -2.7890   -0.0170    1.4210 o         1 MOL     -0.669508
     14 O4         -2.6810    1.9390    0.4800 o         1 MOL     -0.669508
     15 H4         -1.4540    2.9800    4.9250 hn        1 MOL      0.348018
     16 H5         -0.4140    1.8250    2.4410 h1        1 MOL     -0.051733
     17 H6         -3.3390    2.5270    3.1760 hc        1 MOL     -0.008955
     18 H7         -2.5200    1.0900    3.6410 hc        1 MOL     -0.008955
     19 N2         -0.4490    3.8530    0.8500 n         1 MOL     -0.380742
     20 C7         -0.2660    5.0060    0.0180 c3        1 MOL     -0.086431
     21 C8         -1.4710    5.2360   -0.9020 c         1 MOL      0.538656
     22 O5         -1.6080    6.3100   -1.4600 o         1 MOL     -0.581079
     23 C9          1.1340    4.8620   -0.6740 c3        1 MOL      0.167134
     24 C10         1.9000    6.0500   -1.2040 c3        1 MOL     -0.336945
     25 C11         3.0210    5.6040   -2.1830 c3        1 MOL      0.216884
     26 C12         3.7210    6.9520   -2.5910 c3        1 MOL      0.012728
     27 N3          4.6560    6.8330   -3.7750 n4        1 MOL     -0.368308
     28 H8         -0.1540    2.9240    0.5990 hn        1 MOL      0.280157
     29 H9         -0.2040    5.8920    0.6570 h1        1 MOL      0.114595
     30 H10         0.9580    4.0350   -1.3630 hc        1 MOL      0.020097
     31 H11         1.7600    4.3620    0.0650 hc        1 MOL      0.020097
     32 H12         2.2830    6.5550   -0.3160 hc        1 MOL      0.088726
     33 H13         1.1760    6.7050   -1.7030 hc        1 MOL      0.088726
     34 H14         2.6310    5.1310   -3.0890 hc        1 MOL     -0.014794
     35 H15         3.7360    4.8970   -1.7530 hc        1 MOL     -0.014794
     36 H16         4.3120    7.2630   -1.7350 hx        1 MOL      0.082722
     37 H17         2.9410    7.6540   -2.8610 hx        1 MOL      0.082722
     38 H18         4.1160    6.6180   -4.5980 hn        1 MOL      0.326317
     39 H19         5.0790    7.7150   -4.0230 hn        1 MOL      0.326317
     40 H20         5.3400    6.1110   -3.5910 hn        1 MOL      0.326317
     41 N4         -2.4490    4.3640   -1.0210 n         1 MOL     -0.279409
     42 C13        -3.5580    4.4140   -1.9250 c3        1 MOL      0.028314
     43 C14        -4.9280    4.0440   -1.3280 c         1 MOL      0.544507
     44 O6         -5.9390    4.4300   -1.8940 o         1 MOL     -0.552888
     45 C15        -3.2740    3.6420   -3.2440 c3        1 MOL     -0.323208
     46 C16        -2.8940    2.1550   -2.9330 c         1 MOL      0.866479
     47 O7         -3.6930    1.3500   -2.5170 o         1 MOL     -0.783234
     48 O8         -1.7190    1.8550   -2.9340 o         1 MOL     -0.783234
     49 H21        -2.4680    3.4830   -0.5190 hn        1 MOL      0.163865
     50 H22        -3.6830    5.4820   -2.1180 h1        1 MOL      0.100175
     51 H23        -2.4390    4.1760   -3.6870 hc        1 MOL      0.078442
     52 H24        -4.0930    3.7110   -3.9530 hc        1 MOL      0.078442
     53 N5         -4.9280    3.4040   -0.1470 n         1 MOL     -0.335383
     54 C17        -6.1010    3.0740    0.7620 c3        1 MOL     -0.111466
     55 C18        -6.7980    1.7680    0.3800 c         1 MOL      0.516328
     56 O9         -7.8400    1.4940    0.8790 o         1 MOL     -0.545401
     57 H25        -4.1150    2.8260    0.0030 hn        1 MOL      0.146679
     58 H26        -6.8830    3.8440    0.7850 h1        1 MOL      0.101882
     59 H27        -5.7260    2.9290    1.7790 h1        1 MOL      0.101882
     60 N6         -6.1660    0.9460   -0.5250 n         1 MOL     -0.191210
     61 C19        -6.8110   -0.3010   -0.8740 c3        1 MOL     -0.079406
     62 C20        -6.9720   -1.3380    0.2640 c         1 MOL      0.408886
     63 O10        -7.7910   -2.1970    0.0970 o         1 MOL     -0.525668
     64 C21        -6.1490   -0.9000   -2.1540 c3        1 MOL     -0.223268
     65 C22        -4.9380   -1.7710   -1.7920 c         1 MOL      0.750490
     66 N7         -4.8990   -2.9710   -2.3450 n         1 MOL     -0.807841
     67 O11        -4.0260   -1.3920   -0.9810 o         1 MOL     -0.658945
     68 H28        -5.3210    1.2940   -0.9700 hn        1 MOL      0.170203
     69 H29        -7.7610    0.0020   -1.3140 h1        1 MOL      0.112996
     70 H30        -5.7920   -0.0980   -2.7920 hc        1 MOL      0.101086
     71 H31        -6.8380   -1.4730   -2.7760 hc        1 MOL      0.101086
     72 H32        -5.6260   -3.3400   -2.9410 hn        1 MOL      0.370961
     73 H33        -4.1180   -3.5880   -2.1860 hn        1 MOL      0.370961
     74 N8         -6.0750   -1.3000    1.2120 n         1 MOL     -0.039633
     75 C23        -5.9910   -2.1500    2.3120 c3        1 MOL     -0.161551
     76 C24        -4.8650   -3.2400    2.3850 c         1 MOL      0.484197
     77 O12        -4.9190   -4.1820    3.2060 o         1 MOL     -0.546147
     78 H34        -5.4350   -0.5210    1.2250 hn        1 MOL      0.153679
     79 H35        -6.8910   -2.7660    2.3120 h1        1 MOL      0.083697
     80 H36        -6.0610   -1.5010    3.1870 h1        1 MOL      0.083697
     81 N9         -3.8630   -3.0350    1.5390 n         1 MOL     -0.215714
     82 C25        -2.5550   -3.6800    1.7440 c3        1 MOL      0.072055
     83 C26        -1.2760   -2.8960    1.2650 c         1 MOL      0.176775
     84 O13        -1.3020   -2.1220    0.2680 o         1 MOL     -0.452487
     85 C27        -2.5780   -5.1020    1.1540 c3        1 MOL     -0.281203
     86 C28        -2.5580   -5.3030   -0.4100 ca        1 MOL      0.206798
     87 C29        -1.3510   -5.1300   -1.1740 ca        1 MOL     -0.241296
     88 C30        -3.7340   -5.8290   -1.1040 ca        1 MOL     -0.241296
     89 C31        -1.3190   -5.3480   -2.5530 ca        1 MOL     -0.183139
     90 C32        -3.6140   -6.2060   -2.4510 ca        1 MOL     -0.183139
     91 C33        -2.4240   -5.9780   -3.1610 ca        1 MOL      0.238912
     92 O14        -2.4380   -6.1560   -4.5400 oh        1 MOL     -0.492163
     93 H37        -3.9060   -2.2520    0.9000 hn        1 MOL      0.178943
     94 H38        -2.4240   -3.7230    2.8200 h1        1 MOL      0.091587
     95 H39        -3.5430   -5.5080    1.4340 hc        1 MOL      0.101732
     96 H40        -1.7690   -5.6910    1.5990 hc        1 MOL      0.101732
     97 H41        -0.4620   -4.8140   -0.6400 ha        1 MOL      0.178278
     98 H42        -4.7110   -5.9880   -0.6780 ha        1 MOL      0.178278
     99 H43        -0.3630   -5.1840   -3.0400 ha        1 MOL      0.137149
    100 H44        -4.4480   -6.5450   -3.0470 ha        1 MOL      0.137149
    101 H45        -1.7010   -5.7150   -4.9720 ho        1 MOL      0.359467
    102 N10        -0.1890   -3.0760    2.0300 n         1 MOL     -0.193848
    103 C34         1.1730   -2.5050    1.8400 c3        1 MOL      0.074038
    104 C35         2.1340   -3.5880    1.3310 c         1 MOL      0.396389
    105 O15         2.1160   -4.6880    1.8430 o         1 MOL     -0.515496
    106 C36         1.6720   -1.8880    3.1810 c3        1 MOL      0.013485
    107 C37         0.8370   -0.6200    3.5250 c3        1 MOL      0.012987
    108 C38         3.1910   -1.5370    3.1950 c3        1 MOL     -0.019634
    109 C39        -0.5390   -0.9200    4.0820 c3        1 MOL     -0.015817
    110 H46        -0.2710   -3.6510    2.8590 hn        1 MOL      0.256863
    111 H47         1.1050   -1.6830    1.1310 h1        1 MOL     -0.022963
    112 H48         1.5330   -2.7130    3.8840 hc        1 MOL      0.021638
    113 H49         0.7190   -0.0080    2.6330 hc        1 MOL      0.027902
    114 H50         1.3400    0.0380    4.2380 hc        1 MOL      0.027902
    115 H51         3.2700   -0.5520    2.7320 hc        1 MOL     -0.010598
    116 H52         3.5280   -1.3870    4.2220 hc        1 MOL     -0.010598
    117 H53         3.8800   -2.2550    2.7510 hc        1 MOL     -0.010598
    118 H54        -1.2860   -0.9670    3.2790 hc        1 MOL     -0.013104
    119 H55        -0.5020   -1.8420    4.6560 hc        1 MOL     -0.013104
    120 H56        -0.8140   -0.0800    4.7200 hc        1 MOL     -0.013104
    121 N11         2.9660   -3.1530    0.3780 n         1 MOL     -0.185766
    122 C40         4.0590   -3.8980   -0.2350 c3        1 MOL      0.073410
    123 C41         5.3770   -3.2440    0.2100 c         1 MOL      0.386025
    124 O16         5.3390   -2.1730    0.7790 o         1 MOL     -0.310611
    125 C42         3.9210   -3.9900   -1.7230 c3        1 MOL      0.074995
    126 O17         4.1410   -2.7570   -2.3840 oh        1 MOL     -0.574900
    127 H57         2.8410   -2.1600    0.2280 hn        1 MOL      0.133670
    128 H58         4.0050   -4.8900    0.2130 h1        1 MOL      0.054424
    129 H59         2.9100   -4.3490   -1.9400 h1        1 MOL      0.035597
    130 H60         4.5580   -4.7760   -2.1320 h1        1 MOL      0.035597
    131 H61         3.3670   -2.6010   -2.9270 ho        1 MOL      0.421894
    132 N12         6.5500   -3.7190   -0.2570 n         1 MOL     -0.426865
    133 C43         7.8240   -3.0200    0.0360 c3        1 MOL      0.165688
    134 C44         7.9080   -1.5670   -0.5230 c         1 MOL      0.477895
    135 O18         8.5140   -0.6880    0.0640 o         1 MOL     -0.492750
    136 C45         8.9470   -3.9340   -0.3520 c3        1 MOL     -0.395243
    137 H62         6.5510   -4.6190   -0.7150 hn        1 MOL      0.293190
    138 H63         7.8620   -2.8540    1.1200 h1        1 MOL      0.072724
    139 H64         9.0650   -4.6980    0.4120 hc        1 MOL      0.120080
    140 H65         8.6780   -4.4380   -1.2830 hc        1 MOL      0.120080
    141 H66         9.8590   -3.3560   -0.4950 hc        1 MOL      0.120080
    142 N13         7.3670   -1.3390   -1.7350 n         1 MOL     -0.363577
    143 C46         7.3480   -0.0430   -2.3910 c3        1 MOL      0.034255
    144 C47         6.5500    1.0130   -1.5530 c         1 MOL      0.359196
    145 O19         6.8020    2.2320   -1.6360 o         1 MOL     -0.528465
    146 C48         6.7210   -0.2380   -3.8100 c3        1 MOL     -0.296878
    147 H67         6.7730   -2.0750   -2.0760 hn        1 MOL      0.245344
    148 H68         8.3710    0.3230   -2.4060 h1        1 MOL      0.116496
    149 H69         5.6530   -0.3170   -3.5980 hc        1 MOL      0.093715
    150 H70         6.8500    0.5790   -4.5180 hc        1 MOL      0.093715
    151 H71         7.0440   -1.1710   -4.2830 hc        1 MOL      0.093715
    152 N14         5.7000    0.5210   -0.6430 n         1 MOL      0.012548
    153 C49         4.8830    1.3790    0.1730 c3        1 MOL     -0.009453
    154 C50         5.5670    1.5130    1.5290 c         1 MOL      0.427692
    155 O20         5.8640    2.5930    1.9600 o         1 MOL     -0.542792
    156 C51         3.4130    0.8850    0.3280 c3        1 MOL      0.140643
    157 C52         2.6060    1.0960   -0.9450 c3        1 MOL     -0.036371
    158 C53         1.1650    0.5850   -0.8150 c         1 MOL      0.765433
    159 O21         0.6700   -0.3310   -1.5950 o         1 MOL     -0.774262
    160 O22         0.4110    1.1700    0.0200 o         1 MOL     -0.774262
    161 H72         5.7440   -0.4710   -0.4600 hn        1 MOL     -0.000874
    162 H73         4.9170    2.3520   -0.3170 h1        1 MOL      0.064342
    163 H74         3.0490    1.3430    1.2430 hc        1 MOL      0.032262
    164 H75         3.4240   -0.1920    0.4470 hc        1 MOL      0.032262
    165 H76         3.1220    0.5750   -1.7440 hc        1 MOL     -0.061471
    166 H77         2.5700    2.1750   -1.1130 hc        1 MOL     -0.061471
    167 N15         6.0210    0.4210    2.1670 n         1 MOL     -0.045872
    168 C54         6.8040    0.4600    3.4050 c3        1 MOL     -0.254970
    169 H78         7.8270    0.1490    3.1970 h1        1 MOL      0.103110
    170 H79         6.8070    1.4750    3.8020 h1        1 MOL      0.103110
    171 H80         6.3600   -0.2150    4.1370 h1        1 MOL      0.103110
    172 H81         5.9210   -0.4250    1.6240 hn        1 MOL      0.041491
    173 Ca1        -1.8000    0.0080   -1.0730 Ca        1 MOL      1.740256
    174 O23        -1.8510   -1.7020   -3.1340 oh        1 MOL     -0.863266
    175 H82        -0.9660   -2.0100   -3.3650 ho        1 MOL      0.413110
    176 H83        -2.4080   -2.0520   -3.8250 ho        1 MOL      0.413110
@<TRIPOS>BOND
     1    1    2 1   
     2    1    4 1   
     3    1    5 1   
     4    1    6 1   
     5    2    3 2   
     6    2    7 1   
     7    7    8 1   
     8    7   15 1   
     9    8    9 1   
    10    8   11 1   
    11    8   16 1   
    12    9   10 2   
    13    9   19 1   
    14   11   12 1   
    15   11   17 1   
    16   11   18 1   
    17   12   13 1   
    18   12   14 1   
    19   19   20 1   
    20   19   28 1   
    21   20   21 1   
    22   20   23 1   
    23   20   29 1   
    24   21   22 2   
    25   21   41 1   
    26   23   24 1   
    27   23   30 1   
    28   23   31 1   
    29   24   25 1   
    30   24   32 1   
    31   24   33 1   
    32   25   26 1   
    33   25   34 1   
    34   25   35 1   
    35   26   27 1   
    36   26   36 1   
    37   26   37 1   
    38   27   38 1   
    39   27   39 1   
    40   27   40 1   
    41   41   42 1   
    42   41   49 1   
    43   42   43 1   
    44   42   45 1   
    45   42   50 1   
    46   43   44 2   
    47   43   53 1   
    48   45   46 1   
    49   45   51 1   
    50   45   52 1   
    51   46   47 1   
    52   46   48 1   
    53   53   54 1   
    54   53   57 1   
    55   54   55 1   
    56   54   58 1   
    57   54   59 1   
    58   55   56 2   
    59   55   60 1   
    60   60   61 1   
    61   60   68 1   
    62   61   62 1   
    63   61   64 1   
    64   61   69 1   
    65   62   63 2   
    66   62   74 1   
    67   64   65 1   
    68   64   70 1   
    69   64   71 1   
    70   65   66 1   
    71   65   67 2   
    72   66   72 1   
    73   66   73 1   
    74   74   75 1   
    75   74   78 1   
    76   75   76 1   
    77   75   79 1   
    78   75   80 1   
    79   76   77 2   
    80   76   81 1   
    81   81   82 1   
    82   81   93 1   
    83   82   83 1   
    84   82   85 1   
    85   82   94 1   
    86   83   84 2   
    87   83  102 1   
    88   85   86 1   
    89   85   95 1   
    90   85   96 1   
    91   86   87 ar  
    92   86   88 ar  
    93   87   89 ar  
    94   87   97 1   
    95   88   90 ar  
    96   88   98 1   
    97   89   91 ar  
    98   89   99 1   
    99   90   91 ar  
   100   90  100 1   
   101   91   92 1   
   102   92  101 1   
   103  102  103 1   
   104  102  110 1   
   105  103  104 1   
   106  103  106 1   
   107  103  111 1   
   108  104  105 2   
   109  104  121 1   
   110  106  107 1   
   111  106  108 1   
   112  106  112 1   
   113  107  109 1   
   114  107  113 1   
   115  107  114 1   
   116  108  115 1   
   117  108  116 1   
   118  108  117 1   
   119  109  118 1   
   120  109  119 1   
   121  109  120 1   
   122  121  122 1   
   123  121  127 1   
   124  122  123 1   
   125  122  125 1   
   126  122  128 1   
   127  123  124 2   
   128  123  132 1   
   129  125  126 1   
   130  125  129 1   
   131  125  130 1   
   132  126  131 1   
   133  132  133 1   
   134  132  137 1   
   135  133  134 1   
   136  133  136 1   
   137  133  138 1   
   138  134  135 2   
   139  134  142 1   
   140  136  139 1   
   141  136  140 1   
   142  136  141 1   
   143  142  143 1   
   144  142  147 1   
   145  143  144 1   
   146  143  146 1   
   147  143  148 1   
   148  144  145 2   
   149  144  152 1   
   150  146  149 1   
   151  146  150 1   
   152  146  151 1   
   153  152  153 1   
   154  152  161 1   
   155  153  154 1   
   156  153  156 1   
   157  153  162 1   
   158  154  155 2   
   159  154  167 1   
   160  156  157 1   
   161  156  163 1   
   162  156  164 1   
   163  157  158 1   
   164  157  165 1   
   165  157  166 1   
   166  158  159 1   
   167  158  160 1   
   168  167  168 1   
   169  167  172 1   
   170  168  169 1   
   171  168  170 1   
   172  168  171 1   
   173  174  175 1   
   174  174  176 1   
@<TRIPOS>SUBSTRUCTURE
     1 MOL         1 TEMP              0 ****  ****    0 ROOT
