@<TRIPOS>MOLECULE
MOL
  189   185     1     0     0
SMALL
resp


@<TRIPOS>ATOM
      1 C1         -0.8510    2.7240    5.8660 c3        1 MOL     -0.340398
      2 C2         -0.9450    2.0010    4.4980 c         1 MOL      0.814388
      3 O1         -0.0020    2.2060    3.7910 o         1 MOL     -0.600083
      4 H1         -1.8000    3.2130    6.0840 hc        1 MOL      0.072152
      5 H2         -0.6310    1.9970    6.6470 hc        1 MOL      0.072152
      6 H3         -0.0580    3.4710    5.8300 hc        1 MOL      0.072152
      7 N1         -2.1510    1.4760    4.1860 n         1 MOL     -0.711972
      8 C3         -2.6000    1.3930    2.7660 c3        1 MOL      0.185598
      9 C4         -2.9470    2.8750    2.2340 c         1 MOL      0.499281
     10 O2         -3.7840    3.5400    2.9130 o         1 MOL     -0.546971
     11 C5         -3.7180    0.3390    2.6910 c3        1 MOL     -0.277050
     12 C6         -4.2970    0.1660    1.3400 c         1 MOL      0.765237
     13 O3         -3.5220    0.2970    0.3470 o         1 MOL     -0.649657
     14 O4         -5.5820    0.0960    1.2240 o         1 MOL     -0.649657
     15 H4         -2.8440    1.2810    4.8960 hn        1 MOL      0.365139
     16 H5         -1.6850    1.0350    2.2880 h1        1 MOL     -0.055148
     17 H6         -4.4870    0.7660    3.3300 hc        1 MOL      0.064397
     18 H7         -3.4230   -0.6360    3.0700 hc        1 MOL      0.064397
     19 N2         -2.3740    3.2780    1.0810 n         1 MOL     -0.288969
     20 C7         -2.5190    4.6390    0.5670 c3        1 MOL      0.081272
     21 C8         -3.3740    4.8050   -0.6880 c         1 MOL      0.449613
     22 O5         -3.6470    5.9390   -1.1010 o         1 MOL     -0.566169
     23 C9         -1.1690    5.2680    0.2590 c3        1 MOL      0.111285
     24 C10        -0.1830    5.3450    1.4400 c3        1 MOL     -0.228968
     25 C11        -0.7420    6.1470    2.5790 c3        1 MOL      0.111025
     26 C12         0.2680    6.5310    3.7150 c3        1 MOL      0.043037
     27 N3         -0.4570    7.3150    4.7780 n4        1 MOL     -0.395038
     28 H8         -1.5680    2.7780    0.7390 hn        1 MOL      0.294303
     29 H9         -2.8710    5.2530    1.3990 h1        1 MOL     -0.017450
     30 H10        -1.3660    6.2640   -0.1330 hc        1 MOL     -0.002069
     31 H11        -0.6660    4.7250   -0.5520 hc        1 MOL     -0.002069
     32 H12         0.7530    5.8590    1.2180 hc        1 MOL      0.067070
     33 H13         0.0680    4.3660    1.8420 hc        1 MOL      0.067070
     34 H14        -1.5420    5.6120    3.0860 hc        1 MOL      0.001882
     35 H15        -1.0980    7.1050    2.2020 hc        1 MOL      0.001882
     36 H16         1.0640    7.0860    3.2300 hx        1 MOL      0.077226
     37 H17         0.6660    5.6370    4.1930 hx        1 MOL      0.077226
     38 H18        -0.7940    8.1720    4.3750 hn        1 MOL      0.330980
     39 H19        -1.2120    6.8540    5.2530 hn        1 MOL      0.330980
     40 H20         0.1990    7.6120    5.4890 hn        1 MOL      0.330980
     41 N4         -3.7470    3.7010   -1.3040 n         1 MOL     -0.225804
     42 C13        -4.5280    3.6930   -2.5060 c3        1 MOL      0.139895
     43 C14        -5.7710    2.8650   -2.5010 c         1 MOL      0.446757
     44 O6         -6.5940    3.1220   -3.3910 o         1 MOL     -0.526017
     45 C15        -3.6310    3.3600   -3.6900 c3        1 MOL     -0.347372
     46 C16        -3.0800    1.9110   -3.6860 c         1 MOL      0.855695
     47 O7         -3.2870    1.2360   -2.6560 o         1 MOL     -0.731980
     48 O8         -2.1810    1.5710   -4.5310 o         1 MOL     -0.731980
     49 H21        -3.4640    2.7970   -0.9520 hn        1 MOL      0.091982
     50 H22        -4.8450    4.7280   -2.6550 h1        1 MOL      0.069220
     51 H23        -2.7240    3.9680   -3.6460 hc        1 MOL      0.076920
     52 H24        -4.1950    3.4320   -4.6150 hc        1 MOL      0.076920
     53 N5         -6.0480    2.0930   -1.4370 n         1 MOL     -0.325199
     54 C17        -7.3860    1.6470   -1.1870 c3        1 MOL     -0.156094
     55 C18        -7.5820    0.1530   -1.3850 c         1 MOL      0.558837
     56 O9         -8.7090   -0.3210   -1.4090 o         1 MOL     -0.591682
     57 H25        -5.3220    1.9790   -0.7430 hn        1 MOL      0.231869
     58 H26        -8.0850    2.1840   -1.8270 h1        1 MOL      0.113199
     59 H27        -7.6730    1.8240   -0.1530 h1        1 MOL      0.113199
     60 N6         -6.5240   -0.6710   -1.6600 n         1 MOL     -0.173093
     61 C19        -6.6380   -2.0230   -2.1820 c3        1 MOL     -0.088563
     62 C20        -6.8110   -3.0310   -0.9990 c         1 MOL      0.459888
     63 O10        -7.0550   -4.1820   -1.2240 o         1 MOL     -0.551359
     64 C21        -5.4570   -2.4380   -3.0750 c3        1 MOL     -0.286929
     65 C22        -4.0860   -2.1460   -2.5790 c         1 MOL      0.786180
     66 O11        -3.8000   -2.2580   -1.3860 o         1 MOL     -0.711377
     67 O12        -3.1920   -1.8190   -3.3560 o         1 MOL     -0.711377
     68 H28        -5.6090   -0.2940   -1.4670 hn        1 MOL      0.143273
     69 H29        -7.5300   -2.1170   -2.8000 h1        1 MOL      0.134034
     70 H30        -5.6590   -1.9150   -3.9960 hc        1 MOL      0.098786
     71 H31        -5.4570   -3.5130   -3.2760 hc        1 MOL      0.098786
     72 N7         -6.5920   -2.6380    0.2340 n         1 MOL     -0.204934
     73 C23        -6.4980   -3.3640    1.5150 c3        1 MOL      0.149505
     74 C24        -5.1970   -4.2060    1.6970 c         1 MOL      0.421508
     75 O13        -5.2800   -5.2910    2.3050 o         1 MOL     -0.550455
     76 H32        -6.2500   -1.6850    0.2070 hn        1 MOL      0.130330
     77 H33        -7.3730   -3.9220    1.8460 h1        1 MOL      0.005117
     78 H34        -6.3100   -2.5180    2.1780 h1        1 MOL      0.005117
     79 N8         -4.0480   -3.8590    1.0960 n         1 MOL     -0.053835
     80 C25        -2.6810   -4.3770    1.1840 c3        1 MOL     -0.154694
     81 C26        -1.6000   -3.3570    1.2700 c         1 MOL      0.580715
     82 O14        -1.8010   -2.1370    0.9870 o         1 MOL     -0.678342
     83 C27        -2.2800   -5.3240   -0.0190 c3        1 MOL      0.411222
     84 C28        -3.2060   -6.4830    0.0860 c3        1 MOL     -0.597943
     85 O15        -2.6120   -4.6560   -1.2020 oh        1 MOL     -0.604289
     86 H35        -4.1100   -3.0400    0.5110 hn        1 MOL      0.091283
     87 H36        -2.5980   -4.9910    2.0810 h1        1 MOL      0.081042
     88 H37        -1.2400   -5.6400   -0.0520 h1        1 MOL      0.045521
     89 H38        -3.3090   -4.0040   -1.0470 ho        1 MOL      0.396628
     90 H39        -3.2990   -6.9440    1.0650 hc        1 MOL      0.152712
     91 H40        -4.2480   -6.2720   -0.1850 hc        1 MOL      0.152712
     92 H41        -2.7580   -7.2300   -0.5600 hc        1 MOL      0.152712
     93 N9         -0.3470   -3.7460    1.6010 n         1 MOL     -0.576421
     94 C29         0.7880   -2.8360    1.5650 c3        1 MOL      0.043517
     95 C30         1.9930   -3.4100    0.8110 c         1 MOL      0.550436
     96 O16         2.3950   -4.5440    1.0710 o         1 MOL     -0.561663
     97 C31         1.1680   -2.5390    2.9920 c3        1 MOL      0.140507
     98 C32         0.1510   -1.5580    3.6270 c3        1 MOL      0.058950
     99 C33         2.6210   -2.0470    3.2220 c3        1 MOL     -0.379416
    100 C34         0.0470   -1.8390    5.1010 c3        1 MOL     -0.239583
    101 H42        -0.0950   -4.7180    1.6210 hn        1 MOL      0.296198
    102 H43         0.5940   -1.8760    1.0830 h1        1 MOL     -0.010633
    103 H44         1.1380   -3.4740    3.5540 hc        1 MOL      0.023559
    104 H45        -0.8530   -1.8030    3.2780 hc        1 MOL      0.109925
    105 H46         0.3950   -0.4960    3.5750 hc        1 MOL      0.109925
    106 H47         2.7290   -2.0290    4.3090 hc        1 MOL      0.075210
    107 H48         3.3090   -2.7280    2.7320 hc        1 MOL      0.075210
    108 H49         2.8220   -1.0290    2.8540 hc        1 MOL      0.075210
    109 H50         0.9500   -1.5990    5.6550 hc        1 MOL      0.036617
    110 H51        -0.7920   -1.2440    5.4440 hc        1 MOL      0.036617
    111 H52        -0.2810   -2.8640    5.2670 hc        1 MOL      0.036617
    112 N10         2.4900   -2.6470   -0.1410 n         1 MOL     -0.287731
    113 C35         3.7520   -2.9530   -0.8830 c3        1 MOL     -0.119873
    114 C36         5.0280   -2.6330   -0.1290 c         1 MOL      0.491935
    115 O17         5.0370   -1.8580    0.8260 o         1 MOL     -0.385640
    116 C37         3.7620   -2.1200   -2.2010 c3        1 MOL      0.177827
    117 C38         2.7980   -2.5290   -3.2890 c3        1 MOL     -0.364219
    118 O18         3.5940   -0.7760   -1.9410 oh        1 MOL     -0.377827
    119 H53         2.1420   -1.7000   -0.1730 hn        1 MOL      0.281068
    120 H54         3.7870   -3.9890   -1.2240 h1        1 MOL      0.125048
    121 H55         4.7330   -2.2780   -2.6730 h1        1 MOL     -0.027736
    122 H56         3.4690   -0.2630   -2.7520 ho        1 MOL      0.346608
    123 H57         3.1620   -2.2830   -4.2850 hc        1 MOL      0.106633
    124 H58         2.7880   -3.6200   -3.3520 hc        1 MOL      0.106633
    125 H59         1.8320   -2.0700   -3.0680 hc        1 MOL      0.106633
    126 N11         6.1960   -3.1390   -0.6630 n         1 MOL     -0.343085
    127 C39         7.5490   -2.7460   -0.1820 c3        1 MOL     -0.054531
    128 C40         7.6950   -1.2150   -0.1540 c         1 MOL      0.312450
    129 O19         8.3050   -0.6530    0.7970 o         1 MOL     -0.456447
    130 C41         8.6670   -3.5120   -0.9280 c3        1 MOL      0.333121
    131 C42         9.9180   -3.6250   -0.0650 c3        1 MOL     -0.252122
    132 O20         8.3260   -4.9020   -1.2000 oh        1 MOL     -0.588748
    133 H60         6.1670   -3.9640   -1.2570 hn        1 MOL      0.233241
    134 H61         7.5930   -3.0710    0.8660 h1        1 MOL      0.150611
    135 H62         8.9410   -2.9910   -1.8410 h1        1 MOL     -0.021972
    136 H63         9.0580   -5.2340   -1.7140 ho        1 MOL      0.388718
    137 H64        10.3360   -2.6330    0.1520 hc        1 MOL      0.070780
    138 H65         9.6460   -4.0870    0.8890 hc        1 MOL      0.070780
    139 H66        10.6900   -4.2130   -0.5540 hc        1 MOL      0.070780
    140 N12         7.1410   -0.4480   -1.1300 n         1 MOL     -0.177441
    141 C43         7.1720    1.0520   -1.1670 c3        1 MOL     -0.087538
    142 C44         6.2860    1.6480   -0.0600 c         1 MOL      0.351807
    143 O21         6.8260    2.5320    0.6310 o         1 MOL     -0.511048
    144 C45         6.8130    1.5090   -2.6560 c3        1 MOL     -0.176027
    145 C46         6.9810    2.9990   -2.8070 c3        1 MOL     -0.045811
    146 C47         6.6880    3.4420   -4.2690 c3        1 MOL     -0.063610
    147 C48         7.2460    4.8150   -4.5990 c3        1 MOL      0.186932
    148 N13         6.7580    5.4450   -5.8490 n4        1 MOL     -0.477451
    149 H67         6.8830   -0.8260   -2.0250 hn        1 MOL      0.176225
    150 H68         8.2040    1.2930   -0.9190 h1        1 MOL      0.135960
    151 H69         5.7970    1.2270   -2.9190 hc        1 MOL      0.076816
    152 H70         7.4550    0.9720   -3.3590 hc        1 MOL      0.076816
    153 H71         7.9880    3.2780   -2.4750 hc        1 MOL      0.058393
    154 H72         6.4400    3.5240   -2.0290 hc        1 MOL      0.058393
    155 H73         5.6120    3.4670   -4.4710 hc        1 MOL      0.038555
    156 H74         7.1800    2.7360   -4.9300 hc        1 MOL      0.038555
    157 H75         8.3290    4.7930   -4.5790 hx        1 MOL      0.038316
    158 H76         6.9370    5.4710   -3.7820 hx        1 MOL      0.038316
    159 H77         6.8960    4.7550   -6.5730 hn        1 MOL      0.342380
    160 H78         5.8050    5.6730   -5.6030 hn        1 MOL      0.342380
    161 H79         7.1960    6.3330   -5.9880 hn        1 MOL      0.342380
    162 N14         5.1390    1.1050    0.1840 n         1 MOL     -0.015372
    163 C49         4.2740    1.5070    1.3120 c3        1 MOL     -0.260100
    164 C50         4.8450    1.0190    2.6960 c         1 MOL      0.486765
    165 O22         4.6240    1.6920    3.7240 o         1 MOL     -0.576794
    166 C51         2.8170    0.8880    1.0330 c3        1 MOL      0.271520
    167 C52         1.9320    1.7820    0.1580 c3        1 MOL     -0.316551
    168 C53         0.6620    1.1280   -0.2690 c         1 MOL      0.651177
    169 O23         0.5880   -0.1200   -0.5050 o         1 MOL     -0.673630
    170 O24        -0.4400    1.7280   -0.3620 o         1 MOL     -0.673630
    171 H80         4.7520    0.4330   -0.4630 hn        1 MOL      0.088883
    172 H81         4.1830    2.5900    1.2500 h1        1 MOL      0.106449
    173 H82         2.2530    0.8400    1.9680 hc        1 MOL     -0.005266
    174 H83         2.9610   -0.0870    0.5760 hc        1 MOL     -0.005266
    175 H84         2.5090    2.1300   -0.6940 hc        1 MOL      0.060927
    176 H85         1.5640    2.6190    0.7510 hc        1 MOL      0.060927
    177 N15         5.5960   -0.0870    2.7290 n         1 MOL      0.006470
    178 C54         6.3110   -0.5620    3.9110 c3        1 MOL     -0.327319
    179 H86         5.7660   -0.2660    4.8080 h1        1 MOL      0.115837
    180 H87         6.3880   -1.6490    3.8760 h1        1 MOL      0.115837
    181 H88         7.3100   -0.1260    3.9320 h1        1 MOL      0.115837
    182 H89         5.6950   -0.4370    1.7890 hn        1 MOL      0.097280
    183 Ca1        -1.7930   -0.4970   -1.2660 Ca        1 MOL      1.744731
    184 O25        -0.6470   -2.8500   -1.9910 oh        1 MOL     -0.836451
    185 H90        -1.4200   -3.4160   -1.9900 ho        1 MOL      0.389970
    186 H91         0.0770   -3.4330   -2.2310 ho        1 MOL      0.389970
    187 O26        -0.4030   -0.0520   -3.6940 oh        1 MOL     -0.836451
    188 H92        -0.9230    0.5450   -4.2260 ho        1 MOL      0.389970
    189 H93        -0.0940   -0.7180   -4.3070 ho        1 MOL      0.389970
@<TRIPOS>BOND
     1    1    2 1   
     2    1    4 1   
     3    1    5 1   
     4    1    6 1   
     5    2    3 2   
     6    2    7 1   
     7    7    8 1   
     8    7   15 1   
     9    8    9 1   
    10    8   11 1   
    11    8   16 1   
    12    9   10 2   
    13    9   19 1   
    14   11   12 1   
    15   11   17 1   
    16   11   18 1   
    17   12   13 1   
    18   12   14 1   
    19   19   20 1   
    20   19   28 1   
    21   20   21 1   
    22   20   23 1   
    23   20   29 1   
    24   21   22 2   
    25   21   41 1   
    26   23   24 1   
    27   23   30 1   
    28   23   31 1   
    29   24   25 1   
    30   24   32 1   
    31   24   33 1   
    32   25   26 1   
    33   25   34 1   
    34   25   35 1   
    35   26   27 1   
    36   26   36 1   
    37   26   37 1   
    38   27   38 1   
    39   27   39 1   
    40   27   40 1   
    41   41   42 1   
    42   41   49 1   
    43   42   43 1   
    44   42   45 1   
    45   42   50 1   
    46   43   44 2   
    47   43   53 1   
    48   45   46 1   
    49   45   51 1   
    50   45   52 1   
    51   46   47 1   
    52   46   48 1   
    53   53   54 1   
    54   53   57 1   
    55   54   55 1   
    56   54   58 1   
    57   54   59 1   
    58   55   56 2   
    59   55   60 1   
    60   60   61 1   
    61   60   68 1   
    62   61   62 1   
    63   61   64 1   
    64   61   69 1   
    65   62   63 2   
    66   62   72 1   
    67   64   65 1   
    68   64   70 1   
    69   64   71 1   
    70   65   66 1   
    71   65   67 1   
    72   72   73 1   
    73   72   76 1   
    74   73   74 1   
    75   73   77 1   
    76   73   78 1   
    77   74   75 2   
    78   74   79 1   
    79   79   80 1   
    80   79   86 1   
    81   80   81 1   
    82   80   83 1   
    83   80   87 1   
    84   81   82 2   
    85   81   93 1   
    86   83   84 1   
    87   83   85 1   
    88   83   88 1   
    89   84   90 1   
    90   84   91 1   
    91   84   92 1   
    92   85   89 1   
    93   93   94 1   
    94   93  101 1   
    95   94   95 1   
    96   94   97 1   
    97   94  102 1   
    98   95   96 2   
    99   95  112 1   
   100   97   98 1   
   101   97   99 1   
   102   97  103 1   
   103   98  100 1   
   104   98  104 1   
   105   98  105 1   
   106   99  106 1   
   107   99  107 1   
   108   99  108 1   
   109  100  109 1   
   110  100  110 1   
   111  100  111 1   
   112  112  113 1   
   113  112  119 1   
   114  113  114 1   
   115  113  116 1   
   116  113  120 1   
   117  114  115 2   
   118  114  126 1   
   119  116  117 1   
   120  116  118 1   
   121  116  121 1   
   122  117  123 1   
   123  117  124 1   
   124  117  125 1   
   125  118  122 1   
   126  126  127 1   
   127  126  133 1   
   128  127  128 1   
   129  127  130 1   
   130  127  134 1   
   131  128  129 2   
   132  128  140 1   
   133  130  131 1   
   134  130  132 1   
   135  130  135 1   
   136  131  137 1   
   137  131  138 1   
   138  131  139 1   
   139  132  136 1   
   140  140  141 1   
   141  140  149 1   
   142  141  142 1   
   143  141  144 1   
   144  141  150 1   
   145  142  143 2   
   146  142  162 1   
   147  144  145 1   
   148  144  151 1   
   149  144  152 1   
   150  145  146 1   
   151  145  153 1   
   152  145  154 1   
   153  146  147 1   
   154  146  155 1   
   155  146  156 1   
   156  147  148 1   
   157  147  157 1   
   158  147  158 1   
   159  148  159 1   
   160  148  160 1   
   161  148  161 1   
   162  162  163 1   
   163  162  171 1   
   164  163  164 1   
   165  163  166 1   
   166  163  172 1   
   167  164  165 2   
   168  164  177 1   
   169  166  167 1   
   170  166  173 1   
   171  166  174 1   
   172  167  168 1   
   173  167  175 1   
   174  167  176 1   
   175  168  169 1   
   176  168  170 1   
   177  177  178 1   
   178  177  182 1   
   179  178  179 1   
   180  178  180 1   
   181  178  181 1   
   182  184  185 1   
   183  184  186 1   
   184  187  188 1   
   185  187  189 1   
@<TRIPOS>SUBSTRUCTURE
     1 MOL         1 TEMP              0 ****  ****    0 ROOT
