@<TRIPOS>MOLECULE
MOL
  189   185     1     0     0
SMALL
resp


@<TRIPOS>ATOM
      1 C1         -0.9080    1.2600    6.8420 c3        1 MOL     -0.353371
      2 C2         -1.2100    1.3200    5.3100 c         1 MOL      0.733716
      3 O1         -0.2200    1.3940    4.6080 o         1 MOL     -0.594188
      4 H1         -1.3780    2.1090    7.3370 hc        1 MOL      0.088123
      5 H2         -1.3060    0.3320    7.2550 hc        1 MOL      0.088123
      6 H3          0.1700    1.2970    7.0010 hc        1 MOL      0.088123
      7 N1         -2.4650    1.3220    4.7590 n         1 MOL     -0.673497
      8 C3         -2.6610    1.2430    3.3310 c3        1 MOL      0.207085
      9 C4         -2.8440    2.6770    2.6910 c         1 MOL      0.620459
     10 O2         -3.7450    3.3760    3.0890 o         1 MOL     -0.558814
     11 C5         -3.8900    0.3360    3.0400 c3        1 MOL      0.023222
     12 C6         -4.2320    0.1510    1.5450 c         1 MOL      0.522861
     13 O3         -3.4000    0.5710    0.7050 o         1 MOL     -0.612567
     14 O4         -5.3150   -0.4370    1.3490 o         1 MOL     -0.612567
     15 H4         -3.2970    1.3180    5.3260 hn        1 MOL      0.330986
     16 H5         -1.8100    0.6710    2.9750 h1        1 MOL     -0.126415
     17 H6         -4.6800    0.8070    3.6160 hc        1 MOL     -0.013833
     18 H7         -3.6590   -0.5990    3.5440 hc        1 MOL     -0.013833
     19 N2         -1.8760    3.0440    1.7830 n         1 MOL     -0.397606
     20 C7         -1.6470    4.4140    1.3570 c3        1 MOL     -0.030753
     21 C8         -2.6560    4.9670    0.3690 c         1 MOL      0.438908
     22 O5         -2.7720    6.1930    0.2910 o         1 MOL     -0.588300
     23 C9         -0.1780    4.3830    0.7810 c3        1 MOL     -0.045577
     24 C10         0.4100    5.6310    0.1320 c3        1 MOL     -0.262278
     25 C11         0.6250    6.7750    1.0660 c3        1 MOL     -0.125908
     26 C12         1.2540    7.9930    0.4000 c3        1 MOL     -0.021566
     27 N3          1.3600    9.2230    1.2250 n4        1 MOL     -0.199286
     28 H8         -1.2580    2.2950    1.5070 hn        1 MOL      0.301421
     29 H9         -1.7170    5.0070    2.2680 h1        1 MOL      0.073357
     30 H10        -0.1340    3.6440   -0.0170 hc        1 MOL      0.099169
     31 H11         0.4830    3.9240    1.5190 hc        1 MOL      0.099169
     32 H12        -0.3090    6.0310   -0.5760 hc        1 MOL      0.088248
     33 H13         1.2410    5.4100   -0.5440 hc        1 MOL      0.088248
     34 H14         1.0420    6.3730    1.9910 hc        1 MOL      0.096055
     35 H15        -0.3670    7.1700    1.3030 hc        1 MOL      0.096055
     36 H16         0.6690    8.3360   -0.4560 hx        1 MOL      0.097823
     37 H17         2.2240    7.6740   -0.0080 hx        1 MOL      0.097823
     38 H18         2.2450    9.1970    1.7130 hn        1 MOL      0.286325
     39 H19         1.4570   10.0650    0.6700 hn        1 MOL      0.286325
     40 H20         0.6940    9.2290    1.9800 hn        1 MOL      0.286325
     41 N4         -3.2320    4.1270   -0.4530 n         1 MOL     -0.110969
     42 C13        -4.2880    4.3180   -1.4410 c3        1 MOL      0.027698
     43 C14        -5.5890    3.4450   -1.2990 c         1 MOL      0.393893
     44 O6         -6.5120    3.5250   -2.1440 o         1 MOL     -0.499083
     45 C15        -3.7260    4.0710   -2.8770 c3        1 MOL     -0.362685
     46 C16        -2.9760    2.7650   -3.1170 c         1 MOL      0.796446
     47 O7         -3.0160    1.8580   -2.2240 o         1 MOL     -0.656574
     48 O8         -2.4230    2.5660   -4.2150 o         1 MOL     -0.656574
     49 H21        -2.9810    3.1860   -0.1840 hn        1 MOL      0.045048
     50 H22        -4.6110    5.3530   -1.3570 h1        1 MOL      0.096015
     51 H23        -3.0130    4.8670   -3.0810 hc        1 MOL      0.096172
     52 H24        -4.5760    4.0230   -3.5610 hc        1 MOL      0.096172
     53 N5         -5.7640    2.6890   -0.2210 n         1 MOL     -0.292747
     54 C17        -7.0540    1.9630    0.0220 c3        1 MOL     -0.045206
     55 C18        -7.3870    0.7700   -0.8340 c         1 MOL      0.612195
     56 O9         -8.5630    0.4960   -0.9260 o         1 MOL     -0.588774
     57 H25        -5.0690    2.6240    0.5110 hn        1 MOL      0.241596
     58 H26        -7.9870    2.5260    0.0750 h1        1 MOL      0.058826
     59 H27        -6.8570    1.4640    0.9670 h1        1 MOL      0.058826
     60 N6         -6.4770    0.1480   -1.6100 n         1 MOL     -0.265043
     61 C19        -6.7000   -1.0730   -2.4380 c3        1 MOL     -0.069069
     62 C20        -6.9750   -2.3850   -1.6610 c         1 MOL      0.457103
     63 O10        -7.4800   -3.3380   -2.1990 o         1 MOL     -0.534283
     64 C21        -5.5540   -1.2300   -3.5050 c3        1 MOL     -0.243523
     65 C22        -4.1230   -1.3760   -3.0470 c         1 MOL      0.797412
     66 O11        -3.1690   -1.4290   -3.9070 o         1 MOL     -0.748670
     67 O12        -3.8740   -1.3410   -1.8430 o         1 MOL     -0.748670
     68 H28        -5.5430    0.1840   -1.2180 hn        1 MOL      0.182121
     69 H29        -7.6600   -0.8860   -2.9150 h1        1 MOL      0.115484
     70 H30        -5.5790   -0.3900   -4.1980 hc        1 MOL      0.080708
     71 H31        -5.7150   -2.1270   -4.0990 hc        1 MOL      0.080708
     72 N7         -6.5770   -2.4350   -0.3680 n         1 MOL     -0.207172
     73 C23        -6.6320   -3.5950    0.5230 c3        1 MOL     -0.091039
     74 C24        -5.2710   -4.2850    0.7470 c         1 MOL      0.571335
     75 O13        -5.3130   -5.3510    1.2770 o         1 MOL     -0.571464
     76 H32        -6.2550   -1.5650    0.0200 hn        1 MOL      0.167981
     77 H33        -7.4380   -4.2580    0.2010 h1        1 MOL      0.074045
     78 H34        -6.9830   -3.2110    1.4790 h1        1 MOL      0.074045
     79 N8         -4.2370   -3.7220    0.1340 n         1 MOL     -0.483034
     80 C25        -3.0230   -4.5330   -0.0620 c3        1 MOL      0.173126
     81 C26        -1.7860   -3.6680    0.0990 c         1 MOL      0.337512
     82 O14        -1.7010   -2.6010   -0.4930 o         1 MOL     -0.628849
     83 C27        -3.0190   -5.1640   -1.4640 c3        1 MOL      0.284612
     84 C28        -1.7130   -5.8330   -1.8410 c3        1 MOL     -0.392928
     85 O15        -4.0500   -6.1190   -1.6060 oh        1 MOL     -0.573251
     86 H35        -4.3000   -2.8890   -0.4210 hn        1 MOL      0.393978
     87 H36        -3.0380   -5.3370    0.6720 h1        1 MOL      0.017059
     88 H37        -3.2920   -4.2820   -2.0410 h1        1 MOL      0.082620
     89 H38        -3.6740   -6.9850   -1.4710 ho        1 MOL      0.379864
     90 H39        -1.8010   -6.4020   -2.7640 hc        1 MOL      0.094269
     91 H40        -0.9080   -5.1220   -2.0060 hc        1 MOL      0.094269
     92 H41        -1.2690   -6.4920   -1.0900 hc        1 MOL      0.094269
     93 N9         -0.7830   -4.2250    0.8660 n         1 MOL     -0.314560
     94 C29         0.4580   -3.5380    1.3060 c3        1 MOL     -0.000244
     95 C30         1.6640   -3.9650    0.4200 c         1 MOL      0.364665
     96 O16         1.9840   -5.1490    0.3910 o         1 MOL     -0.543959
     97 C31         0.7400   -3.8360    2.8170 c3        1 MOL      0.094894
     98 C32        -0.3340   -3.2270    3.7860 c3        1 MOL     -0.091804
     99 C33         2.1390   -3.3870    3.3370 c3        1 MOL     -0.268460
    100 C34        -0.5460   -1.6770    3.6720 c3        1 MOL      0.004821
    101 H42        -0.9950   -5.1350    1.2550 hn        1 MOL      0.257028
    102 H43         0.2530   -2.4840    1.0840 h1        1 MOL      0.103945
    103 H44         0.5630   -4.8970    2.9770 hc        1 MOL      0.021626
    104 H45         0.0840   -3.4320    4.7690 hc        1 MOL      0.014125
    105 H46        -1.3180   -3.6900    3.7240 hc        1 MOL      0.014125
    106 H47         2.0840   -2.3170    3.1690 hc        1 MOL      0.062129
    107 H48         2.2910   -3.6760    4.3720 hc        1 MOL      0.062129
    108 H49         2.9540   -3.7740    2.7280 hc        1 MOL      0.062129
    109 H50         0.3780   -1.1210    3.7850 hc        1 MOL      0.049226
    110 H51        -1.1300   -1.3700    2.7950 hc        1 MOL      0.049226
    111 H52        -1.1600   -1.4250    4.5370 hc        1 MOL      0.049226
    112 N10         2.1600   -3.0400   -0.3510 n         1 MOL      0.016985
    113 C35         3.4250   -3.0690   -1.1030 c3        1 MOL     -0.207694
    114 C36         4.6890   -2.8110   -0.2670 c         1 MOL      0.517494
    115 O17         4.6070   -2.3230    0.8280 o         1 MOL     -0.367399
    116 C37         3.2190   -2.1760   -2.3200 c3        1 MOL      0.375290
    117 C38         1.9720   -2.5340   -3.1140 c3        1 MOL     -0.618404
    118 O18         2.9470   -0.8420   -1.9920 oh        1 MOL     -0.617455
    119 H53         1.6640   -2.1570   -0.3360 hn        1 MOL      0.129705
    120 H54         3.4900   -4.0860   -1.4830 h1        1 MOL      0.072229
    121 H55         4.1130   -2.1690   -2.9420 h1        1 MOL      0.018267
    122 H56         2.2230   -0.8270   -1.3740 ho        1 MOL      0.390342
    123 H57         1.7200   -1.8190   -3.9060 hc        1 MOL      0.162663
    124 H58         1.9550   -3.5620   -3.4700 hc        1 MOL      0.162663
    125 H59         1.0420   -2.5270   -2.5430 hc        1 MOL      0.162663
    126 N11         5.8460   -2.9540   -0.9230 n         1 MOL     -0.362260
    127 C39         7.1560   -2.6110   -0.3310 c3        1 MOL     -0.350357
    128 C40         7.2630   -1.1960    0.0450 c         1 MOL      0.603889
    129 O19         7.7660   -0.9280    1.1260 o         1 MOL     -0.506792
    130 C41         8.3510   -2.9890   -1.2610 c3        1 MOL      0.301687
    131 C42         8.4020   -4.5290   -1.4140 c3        1 MOL     -0.358049
    132 O20         8.0340   -2.3910   -2.5550 oh        1 MOL     -0.609659
    133 H60         5.7690   -3.3780   -1.8340 hn        1 MOL      0.286995
    134 H61         7.1680   -3.2830    0.5260 h1        1 MOL      0.210567
    135 H62         9.2630   -2.5290   -0.8740 h1        1 MOL      0.058928
    136 H63         8.8460   -2.1320   -3.0230 ho        1 MOL      0.392916
    137 H64         9.0540   -4.7150   -2.2580 hc        1 MOL      0.113590
    138 H65         8.8480   -4.9790   -0.5260 hc        1 MOL      0.113590
    139 H66         7.4270   -4.9670   -1.6300 hc        1 MOL      0.113590
    140 N12         6.7870   -0.2380   -0.7620 n         1 MOL     -0.421780
    141 C43         6.8580    1.1630   -0.4010 c3        1 MOL     -0.133557
    142 C44         5.9950    1.4270    0.8000 c         1 MOL      0.412137
    143 O21         6.2700    2.3620    1.5080 o         1 MOL     -0.520356
    144 C45         6.4620    2.0790   -1.5100 c3        1 MOL     -0.153999
    145 C46         7.5730    2.0960   -2.5930 c3        1 MOL      0.243672
    146 C47         7.2740    3.1720   -3.6350 c3        1 MOL      0.055748
    147 C48         8.4860    3.4870   -4.5230 c3        1 MOL     -0.172423
    148 N13         8.1110    4.2380   -5.7600 n4        1 MOL     -0.159323
    149 H67         6.2370   -0.5050   -1.5630 hn        1 MOL      0.302376
    150 H68         7.8930    1.3720   -0.1340 h1        1 MOL      0.156747
    151 H69         6.3050    3.0850   -1.1080 hc        1 MOL      0.062671
    152 H70         5.5160    1.7790   -1.9380 hc        1 MOL      0.062671
    153 H71         7.7720    1.1550   -3.1040 hc        1 MOL     -0.045872
    154 H72         8.5560    2.3590   -2.1960 hc        1 MOL     -0.045872
    155 H73         6.9040    3.9560   -2.9850 hc        1 MOL     -0.000271
    156 H74         6.3980    2.8400   -4.1910 hc        1 MOL     -0.000271
    157 H75         8.8460    2.5010   -4.8420 hx        1 MOL      0.130686
    158 H76         9.1300    4.1700   -3.9630 hx        1 MOL      0.130686
    159 H77         7.5020    3.6390   -6.2940 hn        1 MOL      0.238836
    160 H78         7.6200    5.0960   -5.5420 hn        1 MOL      0.238836
    161 H79         8.8980    4.5070   -6.3410 hn        1 MOL      0.238836
    162 N14         4.9470    0.6180    1.1090 n         1 MOL      0.002992
    163 C49         4.1550    0.7180    2.3080 c3        1 MOL     -0.230700
    164 C50         4.7130    0.0430    3.5500 c         1 MOL      0.532686
    165 O22         4.4120    0.5000    4.6410 o         1 MOL     -0.547217
    166 C51         2.7730    0.1180    2.0550 c3        1 MOL      0.280585
    167 C52         1.9930    1.0140    1.1310 c3        1 MOL      0.000480
    168 C53         0.7130    0.3670    0.7560 c         1 MOL      0.843666
    169 O23         0.6760   -0.5890   -0.0760 o         1 MOL     -0.797792
    170 O24        -0.3800    0.9360    0.9230 o         1 MOL     -0.797792
    171 H80         4.7850   -0.2470    0.6000 hn        1 MOL      0.080096
    172 H81         4.0140    1.7770    2.5330 h1        1 MOL      0.113321
    173 H82         2.1930    0.0720    2.9750 hc        1 MOL     -0.034482
    174 H83         2.7580   -0.9000    1.6590 hc        1 MOL     -0.034482
    175 H84         2.6210    1.2120    0.2700 hc        1 MOL     -0.072997
    176 H85         1.7740    1.9340    1.6730 hc        1 MOL     -0.072997
    177 N15         5.5850   -0.9540    3.3840 n         1 MOL     -0.210641
    178 C54         6.0890   -1.9380    4.4210 c3        1 MOL     -0.353339
    179 H86         6.7460   -2.6650    3.9440 h1        1 MOL      0.142868
    180 H87         6.6410   -1.4010    5.1930 h1        1 MOL      0.142868
    181 H88         5.2430   -2.4560    4.8730 h1        1 MOL      0.142868
    182 H89         5.7940   -1.1420    2.4060 hn        1 MOL      0.138853
    183 Ca1        -1.6540   -0.0470   -1.0970 Ca        1 MOL      1.797258
    184 O25         0.1110    1.8900   -2.2000 oh        1 MOL     -0.883058
    185 H90         0.9920    2.2540   -2.0580 ho        1 MOL      0.417550
    186 H91         0.1040    1.6270   -3.1170 ho        1 MOL      0.417550
    187 O26        -0.6760   -0.5530   -3.5300 oh        1 MOL     -0.883058
    188 H92         0.0110   -0.4830   -4.1910 ho        1 MOL      0.417550
    189 H93        -1.3850   -1.0250   -3.9740 ho        1 MOL      0.417550
@<TRIPOS>BOND
     1    1    2 1   
     2    1    4 1   
     3    1    5 1   
     4    1    6 1   
     5    2    3 2   
     6    2    7 1   
     7    7    8 1   
     8    7   15 1   
     9    8    9 1   
    10    8   11 1   
    11    8   16 1   
    12    9   10 2   
    13    9   19 1   
    14   11   12 1   
    15   11   17 1   
    16   11   18 1   
    17   12   13 1   
    18   12   14 1   
    19   19   20 1   
    20   19   28 1   
    21   20   21 1   
    22   20   23 1   
    23   20   29 1   
    24   21   22 2   
    25   21   41 1   
    26   23   24 1   
    27   23   30 1   
    28   23   31 1   
    29   24   25 1   
    30   24   32 1   
    31   24   33 1   
    32   25   26 1   
    33   25   34 1   
    34   25   35 1   
    35   26   27 1   
    36   26   36 1   
    37   26   37 1   
    38   27   38 1   
    39   27   39 1   
    40   27   40 1   
    41   41   42 1   
    42   41   49 1   
    43   42   43 1   
    44   42   45 1   
    45   42   50 1   
    46   43   44 2   
    47   43   53 1   
    48   45   46 1   
    49   45   51 1   
    50   45   52 1   
    51   46   47 1   
    52   46   48 1   
    53   53   54 1   
    54   53   57 1   
    55   54   55 1   
    56   54   58 1   
    57   54   59 1   
    58   55   56 2   
    59   55   60 1   
    60   60   61 1   
    61   60   68 1   
    62   61   62 1   
    63   61   64 1   
    64   61   69 1   
    65   62   63 2   
    66   62   72 1   
    67   64   65 1   
    68   64   70 1   
    69   64   71 1   
    70   65   66 1   
    71   65   67 1   
    72   72   73 1   
    73   72   76 1   
    74   73   74 1   
    75   73   77 1   
    76   73   78 1   
    77   74   75 2   
    78   74   79 1   
    79   79   80 1   
    80   79   86 1   
    81   80   81 1   
    82   80   83 1   
    83   80   87 1   
    84   81   82 2   
    85   81   93 1   
    86   83   84 1   
    87   83   85 1   
    88   83   88 1   
    89   84   90 1   
    90   84   91 1   
    91   84   92 1   
    92   85   89 1   
    93   93   94 1   
    94   93  101 1   
    95   94   95 1   
    96   94   97 1   
    97   94  102 1   
    98   95   96 2   
    99   95  112 1   
   100   97   98 1   
   101   97   99 1   
   102   97  103 1   
   103   98  100 1   
   104   98  104 1   
   105   98  105 1   
   106   99  106 1   
   107   99  107 1   
   108   99  108 1   
   109  100  109 1   
   110  100  110 1   
   111  100  111 1   
   112  112  113 1   
   113  112  119 1   
   114  113  114 1   
   115  113  116 1   
   116  113  120 1   
   117  114  115 2   
   118  114  126 1   
   119  116  117 1   
   120  116  118 1   
   121  116  121 1   
   122  117  123 1   
   123  117  124 1   
   124  117  125 1   
   125  118  122 1   
   126  126  127 1   
   127  126  133 1   
   128  127  128 1   
   129  127  130 1   
   130  127  134 1   
   131  128  129 2   
   132  128  140 1   
   133  130  131 1   
   134  130  132 1   
   135  130  135 1   
   136  131  137 1   
   137  131  138 1   
   138  131  139 1   
   139  132  136 1   
   140  140  141 1   
   141  140  149 1   
   142  141  142 1   
   143  141  144 1   
   144  141  150 1   
   145  142  143 2   
   146  142  162 1   
   147  144  145 1   
   148  144  151 1   
   149  144  152 1   
   150  145  146 1   
   151  145  153 1   
   152  145  154 1   
   153  146  147 1   
   154  146  155 1   
   155  146  156 1   
   156  147  148 1   
   157  147  157 1   
   158  147  158 1   
   159  148  159 1   
   160  148  160 1   
   161  148  161 1   
   162  162  163 1   
   163  162  171 1   
   164  163  164 1   
   165  163  166 1   
   166  163  172 1   
   167  164  165 2   
   168  164  177 1   
   169  166  167 1   
   170  166  173 1   
   171  166  174 1   
   172  167  168 1   
   173  167  175 1   
   174  167  176 1   
   175  168  169 1   
   176  168  170 1   
   177  177  178 1   
   178  177  182 1   
   179  178  179 1   
   180  178  180 1   
   181  178  181 1   
   182  184  185 1   
   183  184  186 1   
   184  187  188 1   
   185  187  189 1   
@<TRIPOS>SUBSTRUCTURE
     1 MOL         1 TEMP              0 ****  ****    0 ROOT
