@<TRIPOS>MOLECULE
MOL
  189   185     1     0     0
SMALL
resp


@<TRIPOS>ATOM
      1 C1          0.6640    2.2590    5.3600 c3        1 MOL     -0.303089
      2 C2         -0.0360    2.2370    4.0040 c         1 MOL      0.818109
      3 O1          0.5550    2.8220    3.1070 o         1 MOL     -0.739844
      4 H1          0.8350    1.2370    5.6970 hc        1 MOL      0.069858
      5 H2          1.6190    2.7750    5.2680 hc        1 MOL      0.069858
      6 H3          0.0370    2.7790    6.0840 hc        1 MOL      0.069858
      7 N1         -1.2670    1.6730    3.8420 n         1 MOL     -0.714132
      8 C3         -2.0340    1.7670    2.5350 c3        1 MOL      0.283370
      9 C4         -2.3260    3.2250    2.0550 c         1 MOL      0.366356
     10 O2         -3.0780    4.0020    2.6030 o         1 MOL     -0.555872
     11 C5         -3.3670    1.0350    2.7790 c3        1 MOL     -0.324050
     12 C6         -3.9490    0.6040    1.4390 c         1 MOL      0.810457
     13 O3         -3.3320    0.9050    0.4070 o         1 MOL     -0.709248
     14 O4         -4.9490   -0.1590    1.2970 o         1 MOL     -0.709248
     15 H4         -1.6360    1.1620    4.6380 hn        1 MOL      0.340151
     16 H5         -1.4620    1.1370    1.8490 h1        1 MOL      0.047702
     17 H6         -4.0990    1.6710    3.2880 hc        1 MOL      0.083113
     18 H7         -3.1330    0.1080    3.3020 hc        1 MOL      0.083113
     19 N2         -1.5970    3.6340    1.0030 n         1 MOL      0.030209
     20 C7         -1.8040    5.0340    0.4740 c3        1 MOL     -0.171260
     21 C8         -2.6850    5.0800   -0.8000 c         1 MOL      0.447151
     22 O5         -2.7410    6.1550   -1.4310 o         1 MOL     -0.565277
     23 C9         -0.3450    5.6210    0.2560 c3        1 MOL     -0.017581
     24 C10         0.2250    6.0550    1.6140 c3        1 MOL      0.137154
     25 C11        -0.1790    7.4590    2.0320 c3        1 MOL     -0.189810
     26 C12         0.5190    8.0550    3.2770 c3        1 MOL      0.156884
     27 N3          0.7990    7.0690    4.4040 n4        1 MOL     -0.494319
     28 H8         -0.9160    3.0370    0.5570 hn        1 MOL      0.216864
     29 H9         -2.3170    5.6900    1.1890 h1        1 MOL      0.114267
     30 H10        -0.3890    6.4990   -0.3910 hc        1 MOL      0.024018
     31 H11         0.3750    4.8910   -0.1260 hc        1 MOL      0.024018
     32 H12         1.3140    6.0850    1.5890 hc        1 MOL     -0.001115
     33 H13        -0.1170    5.3890    2.4050 hc        1 MOL     -0.001115
     34 H14        -1.2580    7.4180    2.1840 hc        1 MOL      0.068932
     35 H15         0.0830    8.1360    1.2250 hc        1 MOL      0.068932
     36 H16        -0.0400    8.9160    3.6290 hx        1 MOL      0.048706
     37 H17         1.4470    8.5040    2.9260 hx        1 MOL      0.048706
     38 H18         1.6220    6.5150    4.2180 hn        1 MOL      0.361946
     39 H19         0.8830    7.5930    5.2640 hn        1 MOL      0.361946
     40 H20        -0.0150    6.4990    4.5330 hn        1 MOL      0.361946
     41 N4         -3.1870    3.9880   -1.2670 n         1 MOL     -0.085206
     42 C13        -4.2170    3.9750   -2.3890 c3        1 MOL     -0.323771
     43 C14        -5.5800    3.2490   -2.0200 c         1 MOL      0.713658
     44 O6         -6.5770    3.4580   -2.7180 o         1 MOL     -0.539185
     45 C15        -3.4790    3.5210   -3.6490 c3        1 MOL     -0.118362
     46 C16        -2.5900    2.2930   -3.5220 c         1 MOL      0.831237
     47 O7         -1.7180    2.1210   -4.4130 o         1 MOL     -0.738441
     48 O8         -2.8970    1.4830   -2.6160 o         1 MOL     -0.738441
     49 H21        -3.0380    3.0810   -0.8330 hn        1 MOL      0.016546
     50 H22        -4.4950    4.9690   -2.7560 h1        1 MOL      0.158710
     51 H23        -2.9640    4.3990   -4.0400 hc        1 MOL      0.049873
     52 H24        -4.2010    3.2290   -4.3990 hc        1 MOL      0.049873
     53 N5         -5.6800    2.5940   -0.8400 n         1 MOL     -0.521590
     54 C17        -6.9120    2.0380   -0.2770 c3        1 MOL     -0.000108
     55 C18        -7.3990    0.7720   -0.9160 c         1 MOL      0.557503
     56 O9         -8.4840    0.7870   -1.4700 o         1 MOL     -0.582174
     57 H25        -4.8770    2.1810   -0.3940 hn        1 MOL      0.341497
     58 H26        -7.7320    2.7450   -0.2920 h1        1 MOL      0.054252
     59 H27        -6.8030    1.8120    0.7810 h1        1 MOL      0.054252
     60 N6         -6.6260   -0.3040   -0.8750 n         1 MOL     -0.318853
     61 C19        -6.9960   -1.5420   -1.6980 c3        1 MOL      0.182694
     62 C20        -6.8840   -2.7780   -0.7630 c         1 MOL      0.296883
     63 O10        -7.2720   -3.8880   -1.2860 o         1 MOL     -0.515698
     64 C21        -6.0020   -1.8090   -2.8570 c3        1 MOL     -0.292515
     65 C22        -4.5550   -1.6100   -2.4250 c         1 MOL      0.751405
     66 O11        -4.2500   -2.0110   -1.3190 o         1 MOL     -0.683837
     67 O12        -3.7140   -1.2280   -3.2510 o         1 MOL     -0.683837
     68 H28        -5.8750   -0.3120   -0.1970 hn        1 MOL      0.095839
     69 H29        -8.0410   -1.5190   -2.0060 h1        1 MOL      0.088854
     70 H30        -6.3080   -1.0760   -3.5980 hc        1 MOL      0.088652
     71 H31        -5.9990   -2.7780   -3.3560 hc        1 MOL      0.088652
     72 N7         -6.7090   -2.6880    0.5620 n         1 MOL     -0.357517
     73 C23        -6.6970   -3.8720    1.4150 c3        1 MOL      0.124635
     74 C24        -5.3800   -4.6210    1.4930 c         1 MOL      0.443157
     75 O13        -5.3300   -5.7280    1.9730 o         1 MOL     -0.546294
     76 H32        -6.4620   -1.7840    0.9450 hn        1 MOL      0.289229
     77 H33        -7.4600   -4.6260    1.2400 h1        1 MOL      0.037774
     78 H34        -6.9400   -3.5420    2.4300 h1        1 MOL      0.037774
     79 N8         -4.3170   -4.0320    0.9120 n         1 MOL     -0.229119
     80 C25        -3.0210   -4.6150    0.6650 c3        1 MOL     -0.278030
     81 C26        -1.9170   -3.6480    0.8700 c         1 MOL      0.689860
     82 O14        -1.8870   -2.6140    0.1610 o         1 MOL     -0.662810
     83 C27        -2.8750   -5.3120   -0.6960 c3        1 MOL      0.508493
     84 C28        -3.6300   -6.5840   -0.7990 c3        1 MOL     -0.593938
     85 O15        -3.4100   -4.5180   -1.6870 oh        1 MOL     -0.641916
     86 H35        -4.4530   -3.1160    0.5130 hn        1 MOL      0.208065
     87 H36        -2.8120   -5.3750    1.4200 h1        1 MOL      0.111485
     88 H37        -1.8030   -5.4440   -0.8670 h1        1 MOL     -0.031291
     89 H38        -3.6700   -3.6650   -1.3630 ho        1 MOL      0.514276
     90 H39        -4.6990   -6.6520   -0.6490 hc        1 MOL      0.154333
     91 H40        -3.5580   -6.8890   -1.8440 hc        1 MOL      0.154333
     92 H41        -3.1090   -7.3340   -0.2010 hc        1 MOL      0.154333
     93 N9         -0.8680   -3.9420    1.6830 n         1 MOL     -0.568726
     94 C29         0.4020   -3.1980    1.8100 c3        1 MOL      0.086988
     95 C30         1.5330   -3.7320    0.9590 c         1 MOL      0.461079
     96 O16         1.7330   -4.9270    0.9240 o         1 MOL     -0.569779
     97 C31         0.7450   -3.0820    3.3230 c3        1 MOL      0.264981
     98 C32        -0.3270   -2.2390    4.1000 c3        1 MOL      0.265768
     99 C33         2.1480   -2.4880    3.4880 c3        1 MOL     -0.488935
    100 C34        -0.3240   -2.3690    5.6570 c3        1 MOL     -0.162047
    101 H42        -0.7940   -4.8920    2.0240 hn        1 MOL      0.286117
    102 H43         0.2100   -2.2040    1.4230 h1        1 MOL      0.052123
    103 H44         0.6120   -4.0500    3.8110 hc        1 MOL     -0.031254
    104 H45        -1.2630   -2.7190    3.8300 hc        1 MOL     -0.079769
    105 H46        -0.3440   -1.1830    3.8310 hc        1 MOL     -0.079769
    106 H47         2.2050   -2.2380    4.5480 hc        1 MOL      0.083153
    107 H48         2.8680   -3.2430    3.1570 hc        1 MOL      0.083153
    108 H49         2.2930   -1.5720    2.9280 hc        1 MOL      0.083153
    109 H50         0.6760   -2.2170    6.0480 hc        1 MOL      0.026811
    110 H51        -1.0370   -1.6780    6.1070 hc        1 MOL      0.026811
    111 H52        -0.6330   -3.3530    6.0040 hc        1 MOL      0.026811
    112 N10         2.3170   -2.9100    0.2400 n         1 MOL     -0.047317
    113 C35         3.5170   -3.2420   -0.6090 c3        1 MOL      0.001577
    114 C36         4.8520   -3.0090    0.1640 c         1 MOL      0.308155
    115 O17         4.9670   -2.3000    1.1350 o         1 MOL     -0.340547
    116 C37         3.5350   -2.4710   -1.9540 c3        1 MOL      0.077503
    117 C38         2.1830   -2.6210   -2.7000 c3        1 MOL     -0.369710
    118 O18         3.5890   -1.0930   -1.6140 oh        1 MOL     -0.294109
    119 H53         1.9140   -1.9840    0.2070 hn        1 MOL      0.151321
    120 H54         3.5700   -4.2960   -0.8710 h1        1 MOL      0.067408
    121 H55         4.4320   -2.7030   -2.5400 h1        1 MOL      0.056931
    122 H56         3.2150   -0.4930   -2.2590 ho        1 MOL      0.335010
    123 H57         1.3650   -2.3140   -2.0440 hc        1 MOL      0.106639
    124 H58         2.2590   -2.0330   -3.6130 hc        1 MOL      0.106639
    125 H59         1.9560   -3.6790   -2.8610 hc        1 MOL      0.106639
    126 N11         5.9220   -3.6110   -0.3580 n         1 MOL     -0.245952
    127 C39         7.3160   -3.1320   -0.0620 c3        1 MOL     -0.303246
    128 C40         7.4100   -1.6290   -0.1470 c         1 MOL      0.519350
    129 O19         8.2220   -1.1040    0.6160 o         1 MOL     -0.549659
    130 C41         8.4440   -3.7820   -0.8690 c3        1 MOL      0.275287
    131 C42         8.4420   -5.2830   -0.5020 c3        1 MOL     -0.342890
    132 O20         8.0780   -3.8940   -2.1880 oh        1 MOL     -0.660194
    133 H60         5.7640   -4.3580   -1.0240 hn        1 MOL      0.282769
    134 H61         7.4390   -3.3680    1.0010 h1        1 MOL      0.187134
    135 H62         9.3630   -3.2070   -0.8160 h1        1 MOL      0.090202
    136 H63         8.6840   -4.3520   -2.7810 ho        1 MOL      0.436625
    137 H64         8.8020   -5.4940    0.4990 hc        1 MOL      0.099392
    138 H65         7.4210   -5.6090   -0.6910 hc        1 MOL      0.099392
    139 H66         9.1490   -5.7310   -1.2020 hc        1 MOL      0.099392
    140 N12         6.7870   -0.9380   -1.0220 n         1 MOL     -0.238199
    141 C43         6.8280    0.5590   -1.1950 c3        1 MOL     -0.019285
    142 C44         6.0010    1.3220   -0.1240 c         1 MOL      0.343095
    143 O21         6.4900    2.3620    0.3890 o         1 MOL     -0.525617
    144 C45         6.4810    0.9600   -2.5880 c3        1 MOL     -0.040172
    145 C46         6.8490    2.4190   -2.8970 c3        1 MOL     -0.046554
    146 C47         7.0510    2.6710   -4.4540 c3        1 MOL      0.014104
    147 C48         7.3860    4.2030   -4.6480 c3        1 MOL      0.042438
    148 N13         7.4990    4.5690   -6.0790 n4        1 MOL     -0.328678
    149 H67         6.1010   -1.4460   -1.5650 hn        1 MOL      0.190852
    150 H68         7.8250    0.9530   -1.0200 h1        1 MOL      0.117228
    151 H69         5.4080    0.7850   -2.7120 hc        1 MOL      0.010801
    152 H70         6.9660    0.3170   -3.3240 hc        1 MOL      0.010801
    153 H71         7.7060    2.7350   -2.2980 hc        1 MOL      0.043228
    154 H72         6.0550    3.0540   -2.5040 hc        1 MOL      0.043228
    155 H73         6.0530    2.5530   -4.8850 hc        1 MOL      0.029445
    156 H74         7.7610    2.0520   -4.9950 hc        1 MOL      0.029445
    157 H75         8.2960    4.4430   -4.0960 hx        1 MOL      0.083016
    158 H76         6.6020    4.7700   -4.1590 hx        1 MOL      0.083016
    159 H77         8.1160    3.9920   -6.6280 hn        1 MOL      0.304002
    160 H78         6.6170    4.5230   -6.5770 hn        1 MOL      0.304002
    161 H79         7.6340    5.5570   -6.2070 hn        1 MOL      0.304002
    162 N14         4.8730    0.7660    0.2490 n         1 MOL     -0.022601
    163 C49         4.1000    1.2980    1.3690 c3        1 MOL     -0.088794
    164 C50         4.5900    1.0280    2.7800 c         1 MOL      0.473158
    165 O22         4.3860    1.8730    3.6260 o         1 MOL     -0.565631
    166 C51         2.6440    0.9430    1.3070 c3        1 MOL      0.174454
    167 C52         1.8500    1.6330    0.1750 c3        1 MOL     -0.136976
    168 C53         0.5030    0.9290   -0.0830 c         1 MOL      0.670694
    169 O23        -0.4660    1.4990   -0.6150 o         1 MOL     -0.754182
    170 O24         0.3760   -0.3020    0.0160 o         1 MOL     -0.754182
    171 H80         4.6740   -0.1350   -0.1550 hn        1 MOL     -0.049551
    172 H81         4.1050    2.3940    1.3190 h1        1 MOL      0.061372
    173 H82         2.2700    1.2520    2.2870 hc        1 MOL      0.012924
    174 H83         2.6970   -0.1400    1.1770 hc        1 MOL      0.012924
    175 H84         2.4330    1.4670   -0.7230 hc        1 MOL      0.006127
    176 H85         1.7310    2.7160    0.2930 hc        1 MOL      0.006127
    177 N15         5.2810   -0.0500    3.0320 n         1 MOL     -0.069206
    178 C54         6.0010   -0.3060    4.2590 c3        1 MOL     -0.269923
    179 H86         6.0320   -1.3790    4.4440 h1        1 MOL      0.101795
    180 H87         7.0180    0.0770    4.1700 h1        1 MOL      0.101795
    181 H88         5.4960    0.1900    5.0880 h1        1 MOL      0.101795
    182 H89         5.3460   -0.7860    2.3340 hn        1 MOL      0.157297
    183 Ca1        -1.9200   -0.5190   -1.3750 Ca        1 MOL      1.804763
    184 O25        -0.1680    0.2950   -3.3610 oh        1 MOL     -0.840944
    185 H90         0.7640    0.4930   -3.4740 ho        1 MOL      0.387560
    186 H91        -0.6180    1.0640   -3.7110 ho        1 MOL      0.387560
    187 O26        -1.0570   -2.7890   -2.7260 oh        1 MOL     -0.840944
    188 H92        -1.5330   -3.5750   -3.0150 ho        1 MOL      0.387560
    189 H93        -0.1800   -2.8880   -3.1110 ho        1 MOL      0.387560
@<TRIPOS>BOND
     1    1    2 1   
     2    1    4 1   
     3    1    5 1   
     4    1    6 1   
     5    2    3 2   
     6    2    7 1   
     7    7    8 1   
     8    7   15 1   
     9    8    9 1   
    10    8   11 1   
    11    8   16 1   
    12    9   10 2   
    13    9   19 1   
    14   11   12 1   
    15   11   17 1   
    16   11   18 1   
    17   12   13 1   
    18   12   14 1   
    19   19   20 1   
    20   19   28 1   
    21   20   21 1   
    22   20   23 1   
    23   20   29 1   
    24   21   22 2   
    25   21   41 1   
    26   23   24 1   
    27   23   30 1   
    28   23   31 1   
    29   24   25 1   
    30   24   32 1   
    31   24   33 1   
    32   25   26 1   
    33   25   34 1   
    34   25   35 1   
    35   26   27 1   
    36   26   36 1   
    37   26   37 1   
    38   27   38 1   
    39   27   39 1   
    40   27   40 1   
    41   41   42 1   
    42   41   49 1   
    43   42   43 1   
    44   42   45 1   
    45   42   50 1   
    46   43   44 2   
    47   43   53 1   
    48   45   46 1   
    49   45   51 1   
    50   45   52 1   
    51   46   47 1   
    52   46   48 1   
    53   53   54 1   
    54   53   57 1   
    55   54   55 1   
    56   54   58 1   
    57   54   59 1   
    58   55   56 2   
    59   55   60 1   
    60   60   61 1   
    61   60   68 1   
    62   61   62 1   
    63   61   64 1   
    64   61   69 1   
    65   62   63 2   
    66   62   72 1   
    67   64   65 1   
    68   64   70 1   
    69   64   71 1   
    70   65   66 1   
    71   65   67 1   
    72   72   73 1   
    73   72   76 1   
    74   73   74 1   
    75   73   77 1   
    76   73   78 1   
    77   74   75 2   
    78   74   79 1   
    79   79   80 1   
    80   79   86 1   
    81   80   81 1   
    82   80   83 1   
    83   80   87 1   
    84   81   82 2   
    85   81   93 1   
    86   83   84 1   
    87   83   85 1   
    88   83   88 1   
    89   84   90 1   
    90   84   91 1   
    91   84   92 1   
    92   85   89 1   
    93   93   94 1   
    94   93  101 1   
    95   94   95 1   
    96   94   97 1   
    97   94  102 1   
    98   95   96 2   
    99   95  112 1   
   100   97   98 1   
   101   97   99 1   
   102   97  103 1   
   103   98  100 1   
   104   98  104 1   
   105   98  105 1   
   106   99  106 1   
   107   99  107 1   
   108   99  108 1   
   109  100  109 1   
   110  100  110 1   
   111  100  111 1   
   112  112  113 1   
   113  112  119 1   
   114  113  114 1   
   115  113  116 1   
   116  113  120 1   
   117  114  115 2   
   118  114  126 1   
   119  116  117 1   
   120  116  118 1   
   121  116  121 1   
   122  117  123 1   
   123  117  124 1   
   124  117  125 1   
   125  118  122 1   
   126  126  127 1   
   127  126  133 1   
   128  127  128 1   
   129  127  130 1   
   130  127  134 1   
   131  128  129 2   
   132  128  140 1   
   133  130  131 1   
   134  130  132 1   
   135  130  135 1   
   136  131  137 1   
   137  131  138 1   
   138  131  139 1   
   139  132  136 1   
   140  140  141 1   
   141  140  149 1   
   142  141  142 1   
   143  141  144 1   
   144  141  150 1   
   145  142  143 2   
   146  142  162 1   
   147  144  145 1   
   148  144  151 1   
   149  144  152 1   
   150  145  146 1   
   151  145  153 1   
   152  145  154 1   
   153  146  147 1   
   154  146  155 1   
   155  146  156 1   
   156  147  148 1   
   157  147  157 1   
   158  147  158 1   
   159  148  159 1   
   160  148  160 1   
   161  148  161 1   
   162  162  163 1   
   163  162  171 1   
   164  163  164 1   
   165  163  166 1   
   166  163  172 1   
   167  164  165 2   
   168  164  177 1   
   169  166  167 1   
   170  166  173 1   
   171  166  174 1   
   172  167  168 1   
   173  167  175 1   
   174  167  176 1   
   175  168  169 1   
   176  168  170 1   
   177  177  178 1   
   178  177  182 1   
   179  178  179 1   
   180  178  180 1   
   181  178  181 1   
   182  184  185 1   
   183  184  186 1   
   184  187  188 1   
   185  187  189 1   
@<TRIPOS>SUBSTRUCTURE
     1 MOL         1 TEMP              0 ****  ****    0 ROOT
