@<TRIPOS>MOLECULE
MOL
  189   185     1     0     0
SMALL
resp


@<TRIPOS>ATOM
      1 C1          0.6320    3.2270   -4.3270 c3        1 MOL     -0.357286
      2 C2          1.1390    2.4680   -3.0740 c         1 MOL      0.605787
      3 O1          0.5040    2.5890   -2.0470 o         1 MOL     -0.527490
      4 H1         -0.2220    2.6990   -4.7500 hc        1 MOL      0.094567
      5 H2          0.3320    4.2360   -4.0450 hc        1 MOL      0.094567
      6 H3          1.4300    3.2780   -5.0680 hc        1 MOL      0.094567
      7 N1          2.2430    1.7740   -3.1620 n         1 MOL     -0.524376
      8 C3          2.9640    1.2310   -1.9730 c3        1 MOL      0.138790
      9 C4          4.1080    2.1770   -1.4130 c         1 MOL      0.431241
     10 O2          5.3010    1.9730   -1.5150 o         1 MOL     -0.454797
     11 C5          3.5000   -0.1120   -2.2620 c3        1 MOL     -0.109888
     12 C6          4.1710   -0.7640   -1.0510 c         1 MOL      0.580537
     13 O3          5.2230   -1.4100   -1.2050 o         1 MOL     -0.590662
     14 O4          3.5900   -0.5670    0.0350 o         1 MOL     -0.590662
     15 H4          2.7070    1.6760   -4.0600 hn        1 MOL      0.316904
     16 H5          2.2250    0.9880   -1.2110 h1        1 MOL      0.004668
     17 H6          4.1900   -0.1440   -3.1160 hc        1 MOL      0.015185
     18 H7          2.6110   -0.7000   -2.4480 hc        1 MOL      0.015185
     19 N2          3.7320    3.3290   -0.8800 n         1 MOL     -0.476372
     20 C7          4.6380    4.3440   -0.3630 c3        1 MOL      0.132273
     21 C8          5.2780    3.8820    0.9700 c         1 MOL      0.277081
     22 O5          6.3330    4.4430    1.3210 o         1 MOL     -0.531515
     23 C9          4.0070    5.7560   -0.3750 c3        1 MOL      0.131195
     24 C10         5.0700    6.9120   -0.3160 c3        1 MOL     -0.168706
     25 C11         5.8760    7.1220   -1.6550 c3        1 MOL      0.082241
     26 C12         7.0290    8.0730   -1.4010 c3        1 MOL      0.109839
     27 N3          7.7670    8.4610   -2.5800 n4        1 MOL     -0.321332
     28 H8          2.7360    3.4700   -0.8710 hn        1 MOL      0.307813
     29 H9          5.4580    4.3250   -1.0840 h1        1 MOL      0.075339
     30 H10         3.3140    5.8630    0.4630 hc        1 MOL     -0.007033
     31 H11         3.3460    5.8430   -1.2400 hc        1 MOL     -0.007033
     32 H12         5.8280    6.7960    0.4530 hc        1 MOL      0.052204
     33 H13         4.5930    7.8550   -0.0620 hc        1 MOL      0.052204
     34 H14         5.1750    7.5690   -2.3680 hc        1 MOL     -0.011437
     35 H15         6.2180    6.1680   -2.0510 hc        1 MOL     -0.011437
     36 H16         7.6250    7.5170   -0.6850 hx        1 MOL      0.053301
     37 H17         6.6950    9.0200   -0.9650 hx        1 MOL      0.053301
     38 H18         7.3290    9.2840   -2.9760 hn        1 MOL      0.315532
     39 H19         8.6350    8.8180   -2.1990 hn        1 MOL      0.315532
     40 H20         8.0450    7.7730   -3.2610 hn        1 MOL      0.315532
     41 N4          4.6360    3.0580    1.7760 n         1 MOL     -0.118204
     42 C13         5.2730    2.4910    2.9980 c3        1 MOL      0.022848
     43 C14         6.1970    1.3070    2.6650 c         1 MOL      0.411838
     44 O6          6.8830    0.8030    3.5640 o         1 MOL     -0.469367
     45 C15         4.2160    2.3080    4.1110 c3        1 MOL     -0.242076
     46 C16         2.9820    1.3900    3.8460 c         1 MOL      0.810598
     47 O7          2.9970    0.5370    2.9370 o         1 MOL     -0.697697
     48 O8          1.9940    1.4800    4.6480 o         1 MOL     -0.697697
     49 H21         3.6440    2.9560    1.7080 hn        1 MOL      0.216455
     50 H22         6.0360    3.1970    3.3240 h1        1 MOL      0.075047
     51 H23         3.8420    3.3020    4.3400 hc        1 MOL      0.053840
     52 H24         4.7170    1.9010    5.0040 hc        1 MOL      0.053840
     53 N5          6.2500    0.8600    1.3430 n         1 MOL     -0.075799
     54 C17         7.2010   -0.1410    0.8560 c3        1 MOL     -0.203977
     55 C18         7.1860   -1.4460    1.5940 c         1 MOL      0.488832
     56 O9          7.9460   -1.7370    2.4370 o         1 MOL     -0.511990
     57 H25         5.4930    1.0960    0.7230 hn        1 MOL      0.033534
     58 H26         8.1970    0.2930    0.9600 h1        1 MOL      0.100491
     59 H27         6.9450   -0.2820   -0.2000 h1        1 MOL      0.100491
     60 N6          6.0320   -2.1920    1.4080 n         1 MOL     -0.056273
     61 C19         5.7970   -3.5520    1.8310 c3        1 MOL     -0.054990
     62 C20         5.6040   -4.5730    0.6690 c         1 MOL      0.387556
     63 O10         5.5650   -5.8020    0.9290 o         1 MOL     -0.513803
     64 C21         4.6360   -3.7500    2.8650 c3        1 MOL     -0.038619
     65 C22         3.2490   -3.2340    2.4280 c         1 MOL      0.741390
     66 O11         2.8270   -3.4800    1.2680 o         1 MOL     -0.733272
     67 O12         2.6170   -2.5480    3.2270 o         1 MOL     -0.733272
     68 H28         5.4350   -1.8470    0.6690 hn        1 MOL     -0.105629
     69 H29         6.6830   -3.8490    2.4010 h1        1 MOL      0.082735
     70 H30         4.7120   -3.3100    3.8560 hc        1 MOL      0.023344
     71 H31         4.5700   -4.8200    3.0480 hc        1 MOL      0.023344
     72 N7          5.3950   -4.1490   -0.5920 n         1 MOL     -0.291984
     73 C23         5.2010   -5.1070   -1.6950 c3        1 MOL     -0.053175
     74 C24         3.7230   -5.3900   -1.9690 c         1 MOL      0.545532
     75 O13         3.4450   -6.3240   -2.6920 o         1 MOL     -0.580219
     76 H32         5.2560   -3.1570   -0.7530 hn        1 MOL      0.284794
     77 H33         5.6920   -6.0560   -1.4520 h1        1 MOL      0.073559
     78 H34         5.6730   -4.7160   -2.5930 h1        1 MOL      0.073559
     79 N8          2.7980   -4.6130   -1.3070 n         1 MOL     -0.303163
     80 C25         1.3380   -4.8110   -1.4820 c3        1 MOL     -0.060421
     81 C26         0.6500   -3.4660   -1.5370 c         1 MOL      0.286370
     82 O14         1.0960   -2.4650   -0.9350 o         1 MOL     -0.391838
     83 C27         0.7310   -5.7180   -0.4300 c3        1 MOL      0.588906
     84 C28         0.7730   -7.2300   -0.8520 c3        1 MOL     -0.495643
     85 O15         1.3100   -5.6670    0.8730 oh        1 MOL     -0.709135
     86 H35         3.1760   -3.9480   -0.6440 hn        1 MOL      0.259644
     87 H36         1.2050   -5.3650   -2.4150 h1        1 MOL      0.076757
     88 H37        -0.3000   -5.4410   -0.2070 h1        1 MOL     -0.060682
     89 H38         1.7100   -4.7970    0.9760 ho        1 MOL      0.466749
     90 H39         1.7340   -7.5740   -1.2360 hc        1 MOL      0.115178
     91 H40         0.4700   -7.7000    0.0860 hc        1 MOL      0.115178
     92 H41        -0.1210   -7.4290   -1.4460 hc        1 MOL      0.115178
     93 N9         -0.5400   -3.4210   -2.2010 n         1 MOL     -0.511501
     94 C29        -1.4180   -2.2830   -2.2790 c3        1 MOL      0.024979
     95 C30        -2.8270   -2.5420   -1.8280 c         1 MOL      0.419371
     96 O16        -3.4780   -3.4770   -2.3560 o         1 MOL     -0.559688
     97 C31        -1.4220   -1.7620   -3.6820 c3        1 MOL      0.420536
     98 C32         0.0410   -1.3740   -4.1520 c3        1 MOL     -0.080375
     99 C33        -2.2100   -0.4430   -3.6850 c3        1 MOL     -0.744950
    100 C34         0.3160   -1.2370   -5.6880 c3        1 MOL     -0.117646
    101 H42        -0.6970   -4.2170   -2.8040 hn        1 MOL      0.300746
    102 H43        -1.0460   -1.4940   -1.6200 h1        1 MOL      0.036927
    103 H44        -1.8290   -2.5380   -4.3220 hc        1 MOL     -0.039996
    104 H45         0.7910   -2.1060   -3.8820 hc        1 MOL      0.062217
    105 H46         0.2810   -0.4140   -3.6990 hc        1 MOL      0.062217
    106 H47        -1.7470    0.1970   -2.9320 hc        1 MOL      0.152642
    107 H48        -2.1900    0.0680   -4.6400 hc        1 MOL      0.152642
    108 H49        -3.2240   -0.5600   -3.3080 hc        1 MOL      0.152642
    109 H50         1.3320   -0.8800   -5.8350 hc        1 MOL      0.021250
    110 H51         0.1590   -2.1890   -6.2010 hc        1 MOL      0.021250
    111 H52        -0.2140   -0.4000   -6.1610 hc        1 MOL      0.021250
    112 N10        -3.2770   -1.9120   -0.7550 n         1 MOL     -0.123334
    113 C35        -4.6270   -1.9560   -0.2300 c3        1 MOL     -0.017240
    114 C36        -5.5860   -1.1610   -1.0630 c         1 MOL      0.356066
    115 O17        -5.2290   -0.2030   -1.8320 o         1 MOL     -0.345347
    116 C37        -4.6910   -1.7270    1.3310 c3        1 MOL      0.153698
    117 C38        -3.5570   -2.1950    2.2100 c3        1 MOL     -0.475431
    118 O18        -4.8020   -0.3770    1.6720 oh        1 MOL     -0.393904
    119 H53        -2.6230   -1.2410   -0.3750 hn        1 MOL      0.257287
    120 H54        -4.8330   -3.0270   -0.3190 h1        1 MOL      0.059376
    121 H55        -5.5840   -2.2640    1.6180 h1        1 MOL      0.008061
    122 H56        -4.7900   -0.3820    2.6310 ho        1 MOL      0.350433
    123 H57        -3.3040   -3.1970    1.8670 hc        1 MOL      0.140892
    124 H58        -2.7630   -1.4470    2.2940 hc        1 MOL      0.140892
    125 H59        -3.9300   -2.4790    3.1870 hc        1 MOL      0.140892
    126 N11        -6.8740   -1.4070   -0.7330 n         1 MOL     -0.330531
    127 C39        -7.9850   -0.6110   -1.3730 c3        1 MOL     -0.018763
    128 C40        -7.9800    0.8490   -0.9160 c         1 MOL      0.415886
    129 O19        -8.4230    1.7350   -1.5870 o         1 MOL     -0.494007
    130 C41        -9.3250   -1.2270   -0.9180 c3        1 MOL      0.213462
    131 C42        -9.8210   -2.3920   -1.8130 c3        1 MOL     -0.412483
    132 O20        -9.3470   -1.6810    0.3980 oh        1 MOL     -0.649956
    133 H60        -7.1240   -2.1970   -0.1570 hn        1 MOL      0.291683
    134 H61        -7.9020   -0.6200   -2.4570 h1        1 MOL      0.123719
    135 H62       -10.0150   -0.4140   -1.1650 h1        1 MOL      0.064812
    136 H63       -10.0490   -2.3330    0.4720 ho        1 MOL      0.439262
    137 H64        -9.5280   -3.3540   -1.3800 hc        1 MOL      0.115592
    138 H65       -10.9030   -2.3730   -1.7350 hc        1 MOL      0.115592
    139 H66        -9.5640   -2.2050   -2.8580 hc        1 MOL      0.115592
    140 N12        -7.5200    1.0090    0.3090 n         1 MOL     -0.223862
    141 C43        -7.3450    2.3640    0.8320 c3        1 MOL     -0.114835
    142 C44        -6.1090    3.0940    0.1920 c         1 MOL      0.453355
    143 O21        -6.1500    4.2450   -0.2270 o         1 MOL     -0.481089
    144 C45        -7.1490    2.2830    2.3970 c3        1 MOL     -0.082586
    145 C46        -8.2300    1.5010    3.1120 c3        1 MOL      0.057617
    146 C47        -8.2610    1.9340    4.5770 c3        1 MOL     -0.048961
    147 C48        -9.3650    1.1960    5.3570 c3        1 MOL      0.119743
    148 N13        -9.9530    1.9470    6.4970 n4        1 MOL     -0.414420
    149 H67        -7.0000    0.2600    0.7490 hn        1 MOL      0.183519
    150 H68        -8.2780    2.9250    0.7110 h1        1 MOL      0.127357
    151 H69        -6.9690    3.3120    2.7140 hc        1 MOL      0.029975
    152 H70        -6.1860    1.8160    2.6140 hc        1 MOL      0.029975
    153 H71        -8.2330    0.4260    2.9390 hc        1 MOL      0.008717
    154 H72        -9.1930    1.7750    2.6850 hc        1 MOL      0.008717
    155 H73        -8.5100    2.9980    4.5730 hc        1 MOL      0.043790
    156 H74        -7.2580    1.7210    4.9650 hc        1 MOL      0.043790
    157 H75        -8.9890    0.2420    5.7310 hx        1 MOL      0.046854
    158 H76       -10.1200    1.0060    4.5880 hx        1 MOL      0.046854
    159 H77        -9.2610    2.2310    7.1700 hn        1 MOL      0.317622
    160 H78       -10.4810    2.7090    6.1080 hn        1 MOL      0.317622
    161 H79       -10.5230    1.2490    6.9490 hn        1 MOL      0.317622
    162 N14        -4.9650    2.3550    0.0310 n         1 MOL     -0.069401
    163 C49        -3.8000    2.8530   -0.6370 c3        1 MOL     -0.126271
    164 C50        -4.1670    3.3280   -2.0270 c         1 MOL      0.387136
    165 O22        -3.8920    4.4900   -2.3880 o         1 MOL     -0.514716
    166 C51        -2.7370    1.8090   -0.6010 c3        1 MOL      0.038581
    167 C52        -2.0390    1.7740    0.7520 c3        1 MOL     -0.398574
    168 C53        -0.8310    0.8280    0.7530 c         1 MOL      0.935137
    169 O23        -0.9290   -0.3660    0.4420 o         1 MOL     -0.778545
    170 O24         0.2700    1.3090    1.1890 o         1 MOL     -0.778545
    171 H80        -5.0170    1.4020    0.3680 hn        1 MOL      0.016094
    172 H81        -3.4340    3.6930   -0.0430 h1        1 MOL      0.098034
    173 H82        -1.9010    2.1490   -1.2180 hc        1 MOL      0.070351
    174 H83        -3.0940    0.8090   -0.8300 hc        1 MOL      0.070351
    175 H84        -2.7430    1.4920    1.5450 hc        1 MOL      0.083750
    176 H85        -1.7080    2.8030    0.8760 hc        1 MOL      0.083750
    177 N15        -4.8660    2.4480   -2.8010 n         1 MOL     -0.067978
    178 C54        -5.5420    2.8180   -4.0370 c3        1 MOL     -0.343826
    179 H86        -5.8490    1.9170   -4.5670 h1        1 MOL      0.120968
    180 H87        -6.4210    3.4190   -3.8040 h1        1 MOL      0.120968
    181 H88        -4.8640    3.3950   -4.6640 h1        1 MOL      0.120968
    182 H89        -5.0590    1.5680   -2.3510 hn        1 MOL      0.151251
    183 Ca1         1.4610   -1.0510    1.3780 Ca        1 MOL      1.675835
    184 O25        -0.2870   -3.1240    1.4390 oh        1 MOL     -0.861873
    185 H90        -1.1060   -3.4480    1.0650 ho        1 MOL      0.400079
    186 H91        -0.3300   -3.3810    2.3590 ho        1 MOL      0.400079
    187 O26         0.2950   -0.2780    3.6770 oh        1 MOL     -0.861873
    188 H92         0.1820   -0.7570    4.5030 ho        1 MOL      0.400079
    189 H93         1.0930    0.2300    3.7980 ho        1 MOL      0.400079
@<TRIPOS>BOND
     1    1    2 1   
     2    1    4 1   
     3    1    5 1   
     4    1    6 1   
     5    2    3 2   
     6    2    7 1   
     7    7    8 1   
     8    7   15 1   
     9    8    9 1   
    10    8   11 1   
    11    8   16 1   
    12    9   10 2   
    13    9   19 1   
    14   11   12 1   
    15   11   17 1   
    16   11   18 1   
    17   12   13 1   
    18   12   14 1   
    19   19   20 1   
    20   19   28 1   
    21   20   21 1   
    22   20   23 1   
    23   20   29 1   
    24   21   22 2   
    25   21   41 1   
    26   23   24 1   
    27   23   30 1   
    28   23   31 1   
    29   24   25 1   
    30   24   32 1   
    31   24   33 1   
    32   25   26 1   
    33   25   34 1   
    34   25   35 1   
    35   26   27 1   
    36   26   36 1   
    37   26   37 1   
    38   27   38 1   
    39   27   39 1   
    40   27   40 1   
    41   41   42 1   
    42   41   49 1   
    43   42   43 1   
    44   42   45 1   
    45   42   50 1   
    46   43   44 2   
    47   43   53 1   
    48   45   46 1   
    49   45   51 1   
    50   45   52 1   
    51   46   47 1   
    52   46   48 1   
    53   53   54 1   
    54   53   57 1   
    55   54   55 1   
    56   54   58 1   
    57   54   59 1   
    58   55   56 2   
    59   55   60 1   
    60   60   61 1   
    61   60   68 1   
    62   61   62 1   
    63   61   64 1   
    64   61   69 1   
    65   62   63 2   
    66   62   72 1   
    67   64   65 1   
    68   64   70 1   
    69   64   71 1   
    70   65   66 1   
    71   65   67 1   
    72   72   73 1   
    73   72   76 1   
    74   73   74 1   
    75   73   77 1   
    76   73   78 1   
    77   74   75 2   
    78   74   79 1   
    79   79   80 1   
    80   79   86 1   
    81   80   81 1   
    82   80   83 1   
    83   80   87 1   
    84   81   82 2   
    85   81   93 1   
    86   83   84 1   
    87   83   85 1   
    88   83   88 1   
    89   84   90 1   
    90   84   91 1   
    91   84   92 1   
    92   85   89 1   
    93   93   94 1   
    94   93  101 1   
    95   94   95 1   
    96   94   97 1   
    97   94  102 1   
    98   95   96 2   
    99   95  112 1   
   100   97   98 1   
   101   97   99 1   
   102   97  103 1   
   103   98  100 1   
   104   98  104 1   
   105   98  105 1   
   106   99  106 1   
   107   99  107 1   
   108   99  108 1   
   109  100  109 1   
   110  100  110 1   
   111  100  111 1   
   112  112  113 1   
   113  112  119 1   
   114  113  114 1   
   115  113  116 1   
   116  113  120 1   
   117  114  115 2   
   118  114  126 1   
   119  116  117 1   
   120  116  118 1   
   121  116  121 1   
   122  117  123 1   
   123  117  124 1   
   124  117  125 1   
   125  118  122 1   
   126  126  127 1   
   127  126  133 1   
   128  127  128 1   
   129  127  130 1   
   130  127  134 1   
   131  128  129 2   
   132  128  140 1   
   133  130  131 1   
   134  130  132 1   
   135  130  135 1   
   136  131  137 1   
   137  131  138 1   
   138  131  139 1   
   139  132  136 1   
   140  140  141 1   
   141  140  149 1   
   142  141  142 1   
   143  141  144 1   
   144  141  150 1   
   145  142  143 2   
   146  142  162 1   
   147  144  145 1   
   148  144  151 1   
   149  144  152 1   
   150  145  146 1   
   151  145  153 1   
   152  145  154 1   
   153  146  147 1   
   154  146  155 1   
   155  146  156 1   
   156  147  148 1   
   157  147  157 1   
   158  147  158 1   
   159  148  159 1   
   160  148  160 1   
   161  148  161 1   
   162  162  163 1   
   163  162  171 1   
   164  163  164 1   
   165  163  166 1   
   166  163  172 1   
   167  164  165 2   
   168  164  177 1   
   169  166  167 1   
   170  166  173 1   
   171  166  174 1   
   172  167  168 1   
   173  167  175 1   
   174  167  176 1   
   175  168  169 1   
   176  168  170 1   
   177  177  178 1   
   178  177  182 1   
   179  178  179 1   
   180  178  180 1   
   181  178  181 1   
   182  184  185 1   
   183  184  186 1   
   184  187  188 1   
   185  187  189 1   
@<TRIPOS>SUBSTRUCTURE
     1 MOL         1 TEMP              0 ****  ****    0 ROOT
