@<TRIPOS>MOLECULE
MOL
  175   173     1     0     0
SMALL
resp


@<TRIPOS>ATOM
      1 C1          0.5380    3.8250    5.4350 c3        1 MOL     -0.470140
      2 C2         -0.1280    3.8620    4.0500 c         1 MOL      0.653346
      3 O1          0.3930    4.3620    3.0600 o         1 MOL     -0.494947
      4 H1          0.8290    4.8340    5.7250 hc        1 MOL      0.115626
      5 H2         -0.1640    3.4250    6.1660 hc        1 MOL      0.115626
      6 H3          1.4230    3.1890    5.3960 hc        1 MOL      0.115626
      7 N1         -1.4010    3.4150    4.0560 n         1 MOL     -0.487205
      8 C3         -2.1800    3.2800    2.8500 c3        1 MOL      0.040766
      9 C4         -2.3320    4.5630    1.9570 c         1 MOL      0.595654
     10 O2         -2.4230    5.6750    2.5540 o         1 MOL     -0.586961
     11 C5         -3.5790    2.7080    3.2430 c3        1 MOL     -0.304773
     12 C6         -4.2830    2.4090    1.9020 c         1 MOL      0.695788
     13 O3         -3.6480    1.8800    0.9340 o         1 MOL     -0.644600
     14 O4         -5.5200    2.7400    1.8810 o         1 MOL     -0.644600
     15 H4         -1.8050    3.1310    4.9410 hn        1 MOL      0.299866
     16 H5         -1.8140    2.4620    2.2360 h1        1 MOL      0.005719
     17 H6         -4.1390    3.3570    3.9230 hc        1 MOL      0.069005
     18 H7         -3.5220    1.8050    3.8530 hc        1 MOL      0.069005
     19 N2         -2.2680    4.4630    0.6600 n         1 MOL     -0.482877
     20 C7         -2.6080    5.6020   -0.2430 c3        1 MOL      0.340589
     21 C8         -3.5390    5.2150   -1.4550 c         1 MOL      0.344774
     22 O5         -3.9510    6.0100   -2.3130 o         1 MOL     -0.559976
     23 C9         -1.3830    6.3580   -0.6320 c3        1 MOL     -0.178239
     24 H8         -1.9680    3.5430    0.3660 hn        1 MOL      0.320075
     25 H9         -3.1180    6.3890    0.3190 h1        1 MOL     -0.000306
     26 H10        -1.5860    7.3120   -1.1140 hc        1 MOL      0.040917
     27 H11        -0.7960    6.4600    0.2790 hc        1 MOL      0.040917
     28 H12        -0.7640    5.8230   -1.3610 hc        1 MOL      0.040917
     29 N3         -3.9900    3.9480   -1.5460 n         1 MOL     -0.140042
     30 C10        -4.8220    3.3590   -2.6510 c3        1 MOL      0.064096
     31 C11        -6.0030    2.4420   -2.2470 c         1 MOL      0.404860
     32 O6         -6.8130    2.0660   -3.1330 o         1 MOL     -0.524150
     33 C12        -3.9330    2.7080   -3.7800 c3        1 MOL     -0.128228
     34 C13        -2.9800    1.6210   -3.3260 c         1 MOL      0.808396
     35 O7         -1.9980    1.4080   -4.0450 o         1 MOL     -0.735268
     36 O8         -3.0420    1.0800   -2.2230 o         1 MOL     -0.735268
     37 H13        -3.7940    3.3200   -0.7880 hn        1 MOL      0.018762
     38 H14        -5.3470    4.1130   -3.2270 h1        1 MOL      0.058179
     39 H15        -3.3280    3.4600   -4.2880 hc        1 MOL      0.013998
     40 H16        -4.6150    2.1900   -4.4490 hc        1 MOL      0.013998
     41 N4         -6.1550    2.1660   -0.9560 n         1 MOL     -0.262508
     42 C14        -7.3400    1.4460   -0.4880 c3        1 MOL     -0.120093
     43 C15        -7.5570    0.0090   -1.0870 c         1 MOL      0.317484
     44 O9         -8.6870   -0.5070   -1.1510 o         1 MOL     -0.576444
     45 H17        -5.6370    2.5990   -0.2000 hn        1 MOL      0.213373
     46 H18        -8.2260    2.0380   -0.7150 h1        1 MOL      0.102204
     47 H19        -7.2210    1.3830    0.5830 h1        1 MOL      0.102204
     48 N5         -6.5520   -0.6980   -1.4750 n         1 MOL      0.107386
     49 C16        -6.5760   -2.0580   -1.9480 c3        1 MOL     -0.209199
     50 C17        -6.5340   -3.2040   -0.8930 c         1 MOL      0.490688
     51 O10        -6.7610   -4.3740   -1.2200 o         1 MOL     -0.533308
     52 C18        -5.4110   -2.2750   -2.9550 c3        1 MOL     -0.104627
     53 C19        -3.9910   -2.3380   -2.3490 c         1 MOL      0.530638
     54 N6         -3.0190   -2.7960   -3.0560 n         1 MOL     -0.582183
     55 O11        -3.8260   -1.8830   -1.2070 o         1 MOL     -0.576178
     56 H20        -5.6630   -0.2350   -1.5910 hn        1 MOL      0.083906
     57 H21        -7.4770   -2.0640   -2.5540 h1        1 MOL      0.139853
     58 H22        -5.3940   -1.5260   -3.7420 hc        1 MOL      0.050321
     59 H23        -5.5880   -3.2420   -3.4270 hc        1 MOL      0.050321
     60 H24        -3.2080   -3.2230   -3.9460 hn        1 MOL      0.327750
     61 H25        -2.0770   -2.7460   -2.6890 hn        1 MOL      0.327750
     62 N7         -6.2190   -2.9010    0.3660 n         1 MOL     -0.255474
     63 C20        -6.1390   -3.9340    1.4110 c3        1 MOL     -0.193847
     64 C21        -4.7660   -4.5290    1.5960 c         1 MOL      0.545979
     65 O12        -4.5340   -5.4770    2.3970 o         1 MOL     -0.601906
     66 H26        -6.0110   -1.9520    0.6350 hn        1 MOL      0.226792
     67 H27        -6.8640   -4.7090    1.1310 h1        1 MOL      0.111790
     68 H28        -6.4700   -3.5140    2.3660 h1        1 MOL      0.111790
     69 N8         -3.7560   -4.0080    0.9290 n         1 MOL     -0.441953
     70 C22        -2.3740   -4.5180    1.0430 c3        1 MOL     -0.001880
     71 C23        -1.3660   -3.4670    1.2430 c         1 MOL      0.591579
     72 O13        -1.4380   -2.3430    0.7270 o         1 MOL     -0.469440
     73 C24        -1.9370   -5.4570   -0.0660 c3        1 MOL      0.420672
     74 C25        -2.5960   -6.8440    0.0610 c3        1 MOL     -0.501106
     75 O14        -2.3010   -4.8550   -1.2230 oh        1 MOL     -0.587675
     76 H29        -3.9510   -3.2950    0.2420 hn        1 MOL      0.365802
     77 H30        -2.3570   -5.1170    1.9460 h1        1 MOL      0.083754
     78 H31        -0.8560   -5.5930   -0.0660 h1        1 MOL      0.025069
     79 H32        -3.1110   -5.2970   -1.5040 ho        1 MOL      0.365131
     80 H33        -2.2470   -7.5020   -0.7400 hc        1 MOL      0.123333
     81 H34        -2.2670   -7.2830    1.0060 hc        1 MOL      0.123333
     82 H35        -3.6810   -6.7840    0.0050 hc        1 MOL      0.123333
     83 N9         -0.3340   -3.8310    1.9530 n         1 MOL     -0.757020
     84 C26         0.8880   -2.9730    1.9420 c3        1 MOL      0.069127
     85 C27         1.6540   -3.2270    0.6320 c         1 MOL      0.683051
     86 O15         2.0460   -4.3380    0.3150 o         1 MOL     -0.612662
     87 C28         1.8770   -3.1690    3.1300 c3        1 MOL      0.168649
     88 C29         1.0030   -3.2800    4.4250 c3        1 MOL      0.100152
     89 C30         2.8720   -1.9900    3.2840 c3        1 MOL     -0.308784
     90 C31         1.9160   -3.4450    5.7000 c3        1 MOL     -0.258848
     91 H36        -0.1730   -4.7660    2.3030 hn        1 MOL      0.339476
     92 H37         0.5780   -1.9280    1.9900 h1        1 MOL      0.133328
     93 H38         2.3990   -4.0760    2.8050 hc        1 MOL     -0.028410
     94 H39         0.4220   -4.1930    4.3550 hc        1 MOL     -0.013894
     95 H40         0.3510   -2.4080    4.4760 hc        1 MOL     -0.013894
     96 H41         3.4720   -1.9360    2.3780 hc        1 MOL      0.056904
     97 H42         2.2710   -1.0740    3.2530 hc        1 MOL      0.056904
     98 H43         3.5220   -1.9890    4.1610 hc        1 MOL      0.056904
     99 H44         1.3150   -3.7070    6.5690 hc        1 MOL      0.058420
    100 H45         2.6780   -4.2020    5.5090 hc        1 MOL      0.058420
    101 H46         2.3740   -2.4910    5.9750 hc        1 MOL      0.058420
    102 N10         1.9710   -2.0630    0.0300 n         1 MOL     -0.201868
    103 C32         2.7610   -1.8670   -1.1980 c3        1 MOL     -0.081782
    104 C33         4.1230   -1.3890   -0.8520 c         1 MOL      0.574836
    105 O16         4.3970   -0.8800    0.1680 o         1 MOL     -0.341841
    106 C34         1.9330   -0.8700   -2.1130 c3        1 MOL     -0.272938
    107 C35         0.4770   -1.3370   -2.3610 c         1 MOL      0.794963
    108 O17        -0.4590   -0.9270   -1.6690 o         1 MOL     -0.715695
    109 O18         0.2850   -2.2070   -3.2810 o         1 MOL     -0.715695
    110 H47         1.5950   -1.2460    0.4870 hn        1 MOL     -0.011629
    111 H48         2.7450   -2.8310   -1.7280 h1        1 MOL      0.081259
    112 H49         2.4640   -0.5810   -3.0270 hc        1 MOL      0.093790
    113 H50         1.8320    0.0270   -1.5020 hc        1 MOL      0.093790
    114 N11         5.0480   -1.6670   -1.7760 n         1 MOL     -0.690791
    115 C36         6.5120   -1.3500   -1.4160 c3        1 MOL      0.319091
    116 C37         6.8420    0.1180   -1.1150 c         1 MOL      0.343917
    117 O19         7.3430    0.4450   -0.0660 o         1 MOL     -0.429325
    118 C38         7.4500   -1.9010   -2.4030 c3        1 MOL     -0.093370
    119 C39         8.9260   -1.7700   -2.1110 ca        1 MOL      0.054339
    120 C40         9.5400   -2.6740   -1.1630 ca        1 MOL     -0.176687
    121 C41         9.7510   -0.7620   -2.5850 ca        1 MOL     -0.176687
    122 C42        10.8350   -2.4580   -0.7340 ca        1 MOL     -0.065219
    123 C43        10.9180   -0.3940   -1.9580 ca        1 MOL     -0.065219
    124 C44        11.5100   -1.2770   -1.0050 ca        1 MOL     -0.164350
    125 H51         4.7700   -1.9900   -2.6930 hn        1 MOL      0.353126
    126 H52         6.7700   -1.9570   -0.5470 h1        1 MOL      0.058358
    127 H53         7.2630   -1.4400   -3.3770 hc        1 MOL      0.035938
    128 H54         7.3060   -2.9570   -2.6190 hc        1 MOL      0.035938
    129 H55         9.0180   -3.5280   -0.7730 ha        1 MOL      0.111790
    130 H56         9.2800   -0.1540   -3.3370 ha        1 MOL      0.111790
    131 H57        11.1860   -3.1430    0.0170 ha        1 MOL      0.100416
    132 H58        11.4080    0.5080   -2.2660 ha        1 MOL      0.100416
    133 H59        12.3980   -1.0290   -0.4390 ha        1 MOL      0.120651
    134 N12         6.2740    1.0880   -1.9140 n         1 MOL     -0.198314
    135 C45         6.3810    2.4950   -1.5830 c3        1 MOL      0.178964
    136 C46         5.6920    2.8120   -0.2750 c         1 MOL      0.262638
    137 O20         6.1360    3.6440    0.4880 o         1 MOL     -0.506700
    138 C47         5.8570    3.4130   -2.6850 c3        1 MOL     -0.101362
    139 C48         5.9930    2.3830   -3.8360 c3        1 MOL     -0.011151
    140 C49         5.6760    1.0160   -3.2790 c3        1 MOL     -0.132789
    141 H60         7.4050    2.7800   -1.3630 h1        1 MOL      0.054883
    142 H61         4.8480    3.8080   -2.6230 hc        1 MOL      0.060137
    143 H62         6.6390    4.1640   -2.7710 hc        1 MOL      0.060137
    144 H63         5.2690    2.5470   -4.6320 hc        1 MOL      0.017491
    145 H64         6.9920    2.5250   -4.2390 hc        1 MOL      0.017491
    146 H65         4.5810    0.9580   -3.1900 h1        1 MOL      0.096956
    147 H66         5.8760    0.2330   -4.0090 h1        1 MOL      0.096956
    148 N13         4.7020    2.0080    0.1040 n         1 MOL     -0.069071
    149 C50         4.0280    2.2510    1.3710 c3        1 MOL     -0.076005
    150 C51         4.9220    1.6070    2.5200 c         1 MOL      0.415069
    151 O21         4.9430    2.0870    3.6240 o         1 MOL     -0.555985
    152 C52         2.6850    1.6270    1.3410 c3        1 MOL      0.000332
    153 C53         1.6770    2.3080    0.3860 c3        1 MOL     -0.248101
    154 C54         0.3050    1.6350    0.4290 c         1 MOL      0.658906
    155 O22        -0.6810    2.2350   -0.1130 o         1 MOL     -0.664714
    156 O23         0.1650    0.4630    0.8610 o         1 MOL     -0.664714
    157 H67         4.5230    1.0920   -0.2900 hn        1 MOL      0.051626
    158 H68         3.8770    3.3190    1.5590 h1        1 MOL      0.122211
    159 H69         2.3500    1.7360    2.3690 hc        1 MOL      0.034601
    160 H70         2.7430    0.5800    1.0330 hc        1 MOL      0.034601
    161 H71         2.0280    2.3020   -0.6480 hc        1 MOL      0.088458
    162 H72         1.5660    3.3190    0.7900 hc        1 MOL      0.088458
    163 N14         5.7020    0.5610    2.1830 n         1 MOL      0.135085
    164 C55         6.5850   -0.0330    3.0970 c3        1 MOL     -0.262890
    165 H73         6.9740    0.7280    3.7730 h1        1 MOL      0.076718
    166 H74         6.0570   -0.7940    3.6720 h1        1 MOL      0.076718
    167 H75         7.4120   -0.4940    2.5570 h1        1 MOL      0.076718
    168 H76         5.7820    0.3100    1.2110 hn        1 MOL     -0.037725
    169 Ca1        -2.2360    0.0220   -0.0650 Ca        1 MOL      1.663618
    170 O24        -1.7830   -0.0840    2.6810 oh        1 MOL     -0.880268
    171 H77        -1.7970    0.3020    3.5590 ho        1 MOL      0.420098
    172 H78        -0.8670   -0.0140    2.4080 ho        1 MOL      0.420098
    173 O25        -4.1310   -0.8660    1.5480 oh        1 MOL     -0.880268
    174 H79        -4.9010   -0.9720    2.0990 ho        1 MOL      0.420098
    175 H80        -3.3970   -0.8710    2.1610 ho        1 MOL      0.420098
@<TRIPOS>BOND
     1    1    2 1   
     2    1    4 1   
     3    1    5 1   
     4    1    6 1   
     5    2    3 2   
     6    2    7 1   
     7    7    8 1   
     8    7   15 1   
     9    8    9 1   
    10    8   11 1   
    11    8   16 1   
    12    9   10 2   
    13    9   19 1   
    14   11   12 1   
    15   11   17 1   
    16   11   18 1   
    17   12   13 1   
    18   12   14 1   
    19   19   20 1   
    20   19   24 1   
    21   20   21 1   
    22   20   23 1   
    23   20   25 1   
    24   21   22 2   
    25   21   29 1   
    26   23   26 1   
    27   23   27 1   
    28   23   28 1   
    29   29   30 1   
    30   29   37 1   
    31   30   31 1   
    32   30   33 1   
    33   30   38 1   
    34   31   32 2   
    35   31   41 1   
    36   33   34 1   
    37   33   39 1   
    38   33   40 1   
    39   34   35 1   
    40   34   36 1   
    41   41   42 1   
    42   41   45 1   
    43   42   43 1   
    44   42   46 1   
    45   42   47 1   
    46   43   44 2   
    47   43   48 1   
    48   48   49 1   
    49   48   56 1   
    50   49   50 1   
    51   49   52 1   
    52   49   57 1   
    53   50   51 2   
    54   50   62 1   
    55   52   53 1   
    56   52   58 1   
    57   52   59 1   
    58   53   54 1   
    59   53   55 2   
    60   54   60 1   
    61   54   61 1   
    62   62   63 1   
    63   62   66 1   
    64   63   64 1   
    65   63   67 1   
    66   63   68 1   
    67   64   65 2   
    68   64   69 1   
    69   69   70 1   
    70   69   76 1   
    71   70   71 1   
    72   70   73 1   
    73   70   77 1   
    74   71   72 2   
    75   71   83 1   
    76   73   74 1   
    77   73   75 1   
    78   73   78 1   
    79   74   80 1   
    80   74   81 1   
    81   74   82 1   
    82   75   79 1   
    83   83   84 1   
    84   83   91 1   
    85   84   85 1   
    86   84   87 1   
    87   84   92 1   
    88   85   86 2   
    89   85  102 1   
    90   87   88 1   
    91   87   89 1   
    92   87   93 1   
    93   88   90 1   
    94   88   94 1   
    95   88   95 1   
    96   89   96 1   
    97   89   97 1   
    98   89   98 1   
    99   90   99 1   
   100   90  100 1   
   101   90  101 1   
   102  102  103 1   
   103  102  110 1   
   104  103  104 1   
   105  103  106 1   
   106  103  111 1   
   107  104  105 2   
   108  104  114 1   
   109  106  107 1   
   110  106  112 1   
   111  106  113 1   
   112  107  108 1   
   113  107  109 1   
   114  114  115 1   
   115  114  125 1   
   116  115  116 1   
   117  115  118 1   
   118  115  126 1   
   119  116  117 2   
   120  116  134 1   
   121  118  119 1   
   122  118  127 1   
   123  118  128 1   
   124  119  120 ar  
   125  119  121 ar  
   126  120  122 ar  
   127  120  129 1   
   128  121  123 ar  
   129  121  130 1   
   130  122  124 ar  
   131  122  131 1   
   132  123  124 ar  
   133  123  132 1   
   134  124  133 1   
   135  134  135 1   
   136  134  140 1   
   137  135  136 1   
   138  135  138 1   
   139  135  141 1   
   140  136  137 2   
   141  136  148 1   
   142  138  139 1   
   143  138  142 1   
   144  138  143 1   
   145  139  140 1   
   146  139  144 1   
   147  139  145 1   
   148  140  146 1   
   149  140  147 1   
   150  148  149 1   
   151  148  157 1   
   152  149  150 1   
   153  149  152 1   
   154  149  158 1   
   155  150  151 2   
   156  150  163 1   
   157  152  153 1   
   158  152  159 1   
   159  152  160 1   
   160  153  154 1   
   161  153  161 1   
   162  153  162 1   
   163  154  155 1   
   164  154  156 1   
   165  163  164 1   
   166  163  168 1   
   167  164  165 1   
   168  164  166 1   
   169  164  167 1   
   170  170  171 1   
   171  170  172 1   
   172  173  174 1   
   173  173  175 1   
@<TRIPOS>SUBSTRUCTURE
     1 MOL         1 TEMP              0 ****  ****    0 ROOT
