@<TRIPOS>MOLECULE
MOL
  186   183     1     0     0
SMALL
resp


@<TRIPOS>ATOM
      1 C1          0.9970   -3.6320    6.3230 c3        1 MOL     -0.459300
      2 C2          1.6920   -3.1670    5.0070 c         1 MOL      0.741854
      3 O1          1.7710   -1.9740    4.8120 o         1 MOL     -0.597591
      4 H1          1.2240   -4.6830    6.5020 hc        1 MOL      0.111122
      5 H2          1.3620   -3.0350    7.1580 hc        1 MOL      0.111122
      6 H3         -0.0820   -3.5060    6.2290 hc        1 MOL      0.111122
      7 N1          2.1910   -4.1050    4.1830 n         1 MOL     -0.655569
      8 C3          2.6750   -3.7570    2.8250 c3        1 MOL      0.119104
      9 C4          2.4950   -4.8430    1.7880 c         1 MOL      0.336048
     10 O2          2.9600   -5.9580    2.0080 o         1 MOL     -0.538269
     11 C5          4.2700   -3.5160    2.9100 c3        1 MOL     -0.122261
     12 C6          4.7050   -2.5950    1.8030 c         1 MOL      0.695266
     13 O3          3.9820   -2.2730    0.8180 o         1 MOL     -0.700434
     14 O4          5.8480   -2.1550    1.8550 o         1 MOL     -0.700434
     15 H4          2.2550   -5.0720    4.4630 hn        1 MOL      0.347437
     16 H5          2.1930   -2.8290    2.5030 h1        1 MOL      0.152946
     17 H6          4.8070   -4.4650    2.9300 hc        1 MOL      0.043742
     18 H7          4.6040   -3.0120    3.8220 hc        1 MOL      0.043742
     19 N2          1.7950   -4.4270    0.6900 n         1 MOL      0.030924
     20 C7          1.5450   -5.2900   -0.4310 c3        1 MOL     -0.071166
     21 C8          2.6050   -5.1800   -1.4920 c         1 MOL      0.543392
     22 O5          2.6960   -6.1510   -2.2700 o         1 MOL     -0.612847
     23 C9          0.0620   -5.2540   -1.0030 c3        1 MOL      0.170169
     24 C10        -0.2950   -3.9710   -1.8140 c3        1 MOL      0.019450
     25 C11        -0.8910   -5.6980    0.1370 c3        1 MOL     -0.168487
     26 C12        -1.6300   -4.0130   -2.5720 c3        1 MOL     -0.263707
     27 H8          1.4520   -3.4770    0.7520 hn        1 MOL      0.019794
     28 H9          1.7970   -6.2900   -0.0920 h1        1 MOL      0.043633
     29 H10        -0.0160   -6.0420   -1.7610 hc        1 MOL     -0.032212
     30 H11         0.4900   -3.6800   -2.5020 hc        1 MOL      0.032387
     31 H12        -0.3770   -3.1670   -1.0760 hc        1 MOL      0.032387
     32 H13        -1.9220   -5.6970   -0.2240 hc        1 MOL      0.018032
     33 H14        -0.6130   -6.6920    0.4910 hc        1 MOL      0.018032
     34 H15        -0.7540   -4.9790    0.9380 hc        1 MOL      0.018032
     35 H16        -1.6030   -4.9080   -3.1990 hc        1 MOL      0.084869
     36 H17        -2.4470   -4.0160   -1.8560 hc        1 MOL      0.084869
     37 H18        -1.7470   -3.1080   -3.1590 hc        1 MOL      0.084869
     38 N3          3.4210   -4.1610   -1.5340 n         1 MOL     -0.333252
     39 C13         4.2370   -3.8610   -2.7400 c3        1 MOL     -0.139247
     40 C14         5.5710   -3.0830   -2.6410 c         1 MOL      0.410796
     41 O6          6.2850   -2.9410   -3.6570 o         1 MOL     -0.556626
     42 C15         3.2990   -3.1640   -3.7450 c3        1 MOL     -0.026008
     43 C16         2.5400   -1.9750   -3.1940 c         1 MOL      0.666409
     44 O7          2.9250   -1.4410   -2.0960 o         1 MOL     -0.688896
     45 O8          1.5480   -1.6250   -3.8410 o         1 MOL     -0.688896
     46 H19         3.3180   -3.4180   -0.8530 hn        1 MOL      0.193722
     47 H20         4.5160   -4.7740   -3.2750 h1        1 MOL      0.114752
     48 H21         2.4990   -3.8470   -4.0480 hc        1 MOL      0.027935
     49 H22         3.7420   -2.9000   -4.7090 hc        1 MOL      0.027935
     50 N4          5.8660   -2.4640   -1.4980 n         1 MOL     -0.078303
     51 C17         7.1410   -1.8820   -1.2850 c3        1 MOL     -0.173471
     52 C18         7.3400   -0.5310   -1.8600 c         1 MOL      0.480173
     53 O9          8.4560   -0.0950   -1.9930 o         1 MOL     -0.616977
     54 H23         5.2910   -2.5090   -0.6790 hn        1 MOL      0.153308
     55 H24         7.8710   -2.6170   -1.6070 h1        1 MOL      0.097614
     56 H25         7.3420   -1.7430   -0.2210 h1        1 MOL      0.097614
     57 N5          6.3030    0.2530   -2.0940 n         1 MOL     -0.029583
     58 C19         6.3710    1.5400   -2.7040 c3        1 MOL     -0.129288
     59 C20         6.5890    2.6470   -1.7310 c         1 MOL      0.503147
     60 O10         6.8090    3.7780   -2.1710 o         1 MOL     -0.544388
     61 C21         5.0200    1.8130   -3.4010 c3        1 MOL     -0.182718
     62 C22         3.6890    1.7680   -2.6620 c         1 MOL      0.758676
     63 O11         3.7110    1.6260   -1.3960 o         1 MOL     -0.660278
     64 O12         2.6840    2.0430   -3.3150 o         1 MOL     -0.660278
     65 H26         5.4370   -0.0920   -1.7000 hn        1 MOL     -0.016992
     66 H27         7.1970    1.5630   -3.4220 h1        1 MOL      0.138791
     67 H28         4.9740    0.9910   -4.1140 hc        1 MOL      0.051446
     68 H29         5.0930    2.7220   -3.9900 hc        1 MOL      0.051446
     69 N6          6.7590    2.3370   -0.4070 n         1 MOL     -0.344269
     70 C23         6.8490    3.4090    0.5420 c3        1 MOL     -0.123778
     71 C24         5.5400    4.1720    0.9070 c         1 MOL      0.581509
     72 O13         5.6660    5.0640    1.6750 o         1 MOL     -0.593324
     73 H30         6.5430    1.4040   -0.1070 hn        1 MOL      0.285806
     74 H31         7.6390    4.1020    0.2280 h1        1 MOL      0.086082
     75 H32         7.1890    3.0030    1.4940 h1        1 MOL      0.086082
     76 N7          4.3050    3.7280    0.5450 n         1 MOL     -0.277464
     77 C25         3.1000    4.3560    1.2010 c3        1 MOL      0.068711
     78 C26         2.0500    3.3550    1.6780 c         1 MOL      0.506606
     79 O14         2.0430    2.2410    1.1920 o         1 MOL     -0.440765
     80 C27         2.4490    5.3460    0.1800 c3        1 MOL     -0.055283
     81 C28         3.2990    6.5520   -0.2390 c3        1 MOL     -0.360103
     82 C29         2.5400    7.3750   -1.2450 c         1 MOL      0.762626
     83 N8          2.8290    7.3530   -2.5110 n         1 MOL     -0.808096
     84 O15         1.6790    8.1600   -0.9170 o         1 MOL     -0.611505
     85 H33         4.2780    2.7930    0.1660 hn        1 MOL      0.098750
     86 H34         3.4190    4.7970    2.1420 h1        1 MOL      0.062110
     87 H35         1.4880    5.5760    0.6480 hc        1 MOL      0.051919
     88 H36         2.1590    4.8170   -0.7260 hc        1 MOL      0.051919
     89 H37         4.2600    6.2390   -0.6510 hc        1 MOL      0.111467
     90 H38         3.4840    7.1680    0.6360 hc        1 MOL      0.111467
     91 H39         3.4060    6.6030   -2.8740 hn        1 MOL      0.358765
     92 H40         2.1890    7.7540   -3.1810 hn        1 MOL      0.358765
     93 N9          1.2060    3.8090    2.6130 n         1 MOL     -0.614919
     94 C30        -0.0490    3.1450    2.8630 c3        1 MOL      0.031731
     95 C31        -1.0770    3.4920    1.7740 c         1 MOL      0.567933
     96 O16        -1.4900    4.6090    1.5170 o         1 MOL     -0.591653
     97 C32        -0.5410    3.3160    4.3250 c3        1 MOL      0.198320
     98 C33        -1.0110    4.7790    4.7040 c3        1 MOL     -0.229657
     99 C34        -1.7280    2.2920    4.5880 c3        1 MOL     -0.229657
    100 H41         1.1880    4.8000    2.7950 hn        1 MOL      0.334211
    101 H42         0.1220    2.0750    2.7200 h1        1 MOL      0.110115
    102 H43         0.2880    3.0650    4.9830 hc        1 MOL      0.004850
    103 H44        -0.2560    5.5270    4.4710 hc        1 MOL      0.045285
    104 H45        -1.8860    5.0380    4.1100 hc        1 MOL      0.045285
    105 H46        -1.1570    4.7810    5.7930 hc        1 MOL      0.045285
    106 H47        -2.5300    2.4930    3.8730 hc        1 MOL      0.045285
    107 H48        -1.4400    1.2760    4.3470 hc        1 MOL      0.045285
    108 H49        -2.0020    2.3610    5.6370 hc        1 MOL      0.045285
    109 N10        -1.6300    2.4360    1.1630 n         1 MOL     -0.229514
    110 C35        -2.7400    2.4610    0.2050 c3        1 MOL      0.303886
    111 C36        -4.0240    2.0290    0.8480 c         1 MOL      0.029748
    112 O17        -3.9700    1.3040    1.8480 o         1 MOL     -0.219033
    113 C37        -2.2280    1.6700   -1.0460 c3        1 MOL     -0.558351
    114 C38        -3.3450    1.4260   -2.0610 c         1 MOL      0.911852
    115 N11        -3.5480    2.3170   -2.9710 n         1 MOL     -0.793535
    116 O18        -3.8760    0.3580   -2.1820 o         1 MOL     -0.563142
    117 H50        -1.3240    1.4990    1.4020 hn        1 MOL      0.138639
    118 H51        -2.9350    3.4870   -0.1200 h1        1 MOL     -0.000755
    119 H52        -1.8010    0.7030   -0.7640 hc        1 MOL      0.156878
    120 H53        -1.4210    2.2750   -1.4550 hc        1 MOL      0.156878
    121 H54        -3.1330    3.2250   -2.8440 hn        1 MOL      0.346851
    122 H55        -4.2100    2.1280   -3.7110 hn        1 MOL      0.346851
    123 N12        -5.1110    2.4110    0.2050 n         1 MOL     -0.072207
    124 C39        -6.5260    2.1020    0.5610 c3        1 MOL     -0.040224
    125 C40        -6.7560    0.5590    0.6020 c         1 MOL      0.547258
    126 O19        -7.6640    0.1230    1.2670 o         1 MOL     -0.597227
    127 C41        -7.5210    2.8380   -0.4140 c3        1 MOL     -0.149510
    128 C42        -7.6640    2.3840   -1.8460 ca        1 MOL      0.083711
    129 C43        -8.5820    1.3390   -2.1120 ca        1 MOL     -0.169733
    130 C44        -6.9690    2.9510   -2.9210 ca        1 MOL     -0.169733
    131 C45        -8.6690    0.8890   -3.4200 ca        1 MOL     -0.334173
    132 C46        -7.2080    2.5480   -4.1930 ca        1 MOL     -0.334173
    133 C47        -8.0150    1.4860   -4.4880 ca        1 MOL      0.505108
    134 O20        -8.3890    1.0270   -5.7500 oh        1 MOL     -0.590671
    135 H56        -5.0060    2.9080   -0.6610 hn        1 MOL      0.101995
    136 H57        -6.5890    2.5430    1.5520 h1        1 MOL      0.086901
    137 H58        -7.2670    3.8920   -0.5050 hc        1 MOL      0.053603
    138 H59        -8.4850    2.7440    0.0940 hc        1 MOL      0.053603
    139 H60        -9.1830    0.9040   -1.3220 ha        1 MOL      0.153352
    140 H61        -6.1790    3.6560   -2.7180 ha        1 MOL      0.153352
    141 H62        -9.3240    0.0880   -3.7210 ha        1 MOL      0.154975
    142 H63        -6.6300    3.0260   -4.9700 ha        1 MOL      0.154975
    143 H64        -9.1460    0.4400   -5.7900 ho        1 MOL      0.409896
    144 N13        -5.9690   -0.2800   -0.0840 n         1 MOL     -0.144196
    145 C48        -5.9160   -1.7520    0.0520 c3        1 MOL     -0.091755
    146 C49        -5.0550   -2.2270    1.3030 c         1 MOL      0.476681
    147 O21        -5.1520   -3.3620    1.6350 o         1 MOL     -0.544044
    148 C50        -5.6470   -2.4930   -1.2030 c3        1 MOL      0.042996
    149 C51        -6.6050   -2.4350   -2.3920 c3        1 MOL     -0.366353
    150 C52        -6.0430   -3.5010   -3.3540 c         1 MOL      0.680575
    151 O22        -5.2170   -3.1370   -4.2350 o         1 MOL     -0.725306
    152 O23        -6.4650   -4.6990   -3.2880 o         1 MOL     -0.725306
    153 H65        -5.4110    0.1660   -0.7890 hn        1 MOL      0.125495
    154 H66        -6.9260   -2.0520    0.3090 h1        1 MOL      0.088651
    155 H67        -5.6100   -3.5140   -0.8160 hc        1 MOL      0.052959
    156 H68        -4.6370   -2.2120   -1.4990 hc        1 MOL      0.052959
    157 H69        -6.5190   -1.4510   -2.8340 hc        1 MOL      0.087396
    158 H70        -7.6020   -2.6960   -2.0440 hc        1 MOL      0.087396
    159 N14        -4.3480   -1.4020    2.0030 n         1 MOL     -0.363516
    160 C53        -3.5320   -1.7990    3.2040 c3        1 MOL      0.019685
    161 C54        -4.0650   -1.1120    4.5000 c         1 MOL      0.425106
    162 O24        -3.6180   -1.4050    5.5990 o         1 MOL     -0.528047
    163 C55        -2.1370   -1.3670    2.8600 c3        1 MOL      0.143487
    164 C56        -1.5710   -1.9050    1.5370 c3        1 MOL     -0.144549
    165 C57        -0.2320   -1.2040    1.1580 c         1 MOL      0.871503
    166 O25        -0.0700    0.0600    1.3280 o         1 MOL     -0.819978
    167 O26         0.7190   -1.8400    0.6790 o         1 MOL     -0.819978
    168 H71        -4.2810   -0.4550    1.6740 hn        1 MOL      0.160143
    169 H72        -3.4450   -2.8670    3.3860 h1        1 MOL      0.088927
    170 H73        -1.4320   -1.7340    3.6020 hc        1 MOL      0.003326
    171 H74        -2.0720   -0.2790    2.9680 hc        1 MOL      0.003326
    172 H75        -2.2980   -1.7240    0.7560 hc        1 MOL      0.045312
    173 H76        -1.4390   -2.9570    1.7710 hc        1 MOL      0.045312
    174 N15        -4.8970   -0.0120    4.3480 n         1 MOL     -0.274721
    175 C58        -5.1730    0.9590    5.4300 c3        1 MOL      0.000077
    176 H77        -4.7570    1.9300    5.1600 h1        1 MOL      0.034730
    177 H78        -6.2500    1.0520    5.5680 h1        1 MOL      0.034730
    178 H79        -4.7160    0.6130    6.3560 h1        1 MOL      0.034730
    179 H80        -5.1120    0.2800    3.4090 hn        1 MOL      0.149465
    180 Ca1         2.3940   -0.0570    0.0990 Ca        1 MOL      1.743863
    181 O27         2.5290   -0.0660    2.8910 oh        1 MOL     -0.929894
    182 H81         2.7550    0.6980    3.4180 ho        1 MOL      0.429692
    183 H82         2.1200   -0.6780    3.5050 ho        1 MOL      0.429692
    184 O28         0.9230    1.1790   -1.7300 oh        1 MOL     -0.929894
    185 H83         1.5540    1.5970   -2.3100 ho        1 MOL      0.429692
    186 H84         0.3870    0.6370   -2.3110 ho        1 MOL      0.429692
@<TRIPOS>BOND
     1    1    2 1   
     2    1    4 1   
     3    1    5 1   
     4    1    6 1   
     5    2    3 2   
     6    2    7 1   
     7    7    8 1   
     8    7   15 1   
     9    8    9 1   
    10    8   11 1   
    11    8   16 1   
    12    9   10 2   
    13    9   19 1   
    14   11   12 1   
    15   11   17 1   
    16   11   18 1   
    17   12   13 1   
    18   12   14 1   
    19   19   20 1   
    20   19   27 1   
    21   20   21 1   
    22   20   23 1   
    23   20   28 1   
    24   21   22 2   
    25   21   38 1   
    26   23   24 1   
    27   23   25 1   
    28   23   29 1   
    29   24   26 1   
    30   24   30 1   
    31   24   31 1   
    32   25   32 1   
    33   25   33 1   
    34   25   34 1   
    35   26   35 1   
    36   26   36 1   
    37   26   37 1   
    38   38   39 1   
    39   38   46 1   
    40   39   40 1   
    41   39   42 1   
    42   39   47 1   
    43   40   41 2   
    44   40   50 1   
    45   42   43 1   
    46   42   48 1   
    47   42   49 1   
    48   43   44 1   
    49   43   45 1   
    50   50   51 1   
    51   50   54 1   
    52   51   52 1   
    53   51   55 1   
    54   51   56 1   
    55   52   53 2   
    56   52   57 1   
    57   57   58 1   
    58   57   65 1   
    59   58   59 1   
    60   58   61 1   
    61   58   66 1   
    62   59   60 2   
    63   59   69 1   
    64   61   62 1   
    65   61   67 1   
    66   61   68 1   
    67   62   63 1   
    68   62   64 1   
    69   69   70 1   
    70   69   73 1   
    71   70   71 1   
    72   70   74 1   
    73   70   75 1   
    74   71   72 2   
    75   71   76 1   
    76   76   77 1   
    77   76   85 1   
    78   77   78 1   
    79   77   80 1   
    80   77   86 1   
    81   78   79 2   
    82   78   93 1   
    83   80   81 1   
    84   80   87 1   
    85   80   88 1   
    86   81   82 1   
    87   81   89 1   
    88   81   90 1   
    89   82   83 1   
    90   82   84 2   
    91   83   91 1   
    92   83   92 1   
    93   93   94 1   
    94   93  100 1   
    95   94   95 1   
    96   94   97 1   
    97   94  101 1   
    98   95   96 2   
    99   95  109 1   
   100   97   98 1   
   101   97   99 1   
   102   97  102 1   
   103   98  103 1   
   104   98  104 1   
   105   98  105 1   
   106   99  106 1   
   107   99  107 1   
   108   99  108 1   
   109  109  110 1   
   110  109  117 1   
   111  110  111 1   
   112  110  113 1   
   113  110  118 1   
   114  111  112 2   
   115  111  123 1   
   116  113  114 1   
   117  113  119 1   
   118  113  120 1   
   119  114  115 1   
   120  114  116 2   
   121  115  121 1   
   122  115  122 1   
   123  123  124 1   
   124  123  135 1   
   125  124  125 1   
   126  124  127 1   
   127  124  136 1   
   128  125  126 2   
   129  125  144 1   
   130  127  128 1   
   131  127  137 1   
   132  127  138 1   
   133  128  129 ar  
   134  128  130 ar  
   135  129  131 ar  
   136  129  139 1   
   137  130  132 ar  
   138  130  140 1   
   139  131  133 ar  
   140  131  141 1   
   141  132  133 ar  
   142  132  142 1   
   143  133  134 1   
   144  134  143 1   
   145  144  145 1   
   146  144  153 1   
   147  145  146 1   
   148  145  148 1   
   149  145  154 1   
   150  146  147 2   
   151  146  159 1   
   152  148  149 1   
   153  148  155 1   
   154  148  156 1   
   155  149  150 1   
   156  149  157 1   
   157  149  158 1   
   158  150  151 1   
   159  150  152 1   
   160  159  160 1   
   161  159  168 1   
   162  160  161 1   
   163  160  163 1   
   164  160  169 1   
   165  161  162 2   
   166  161  174 1   
   167  163  164 1   
   168  163  170 1   
   169  163  171 1   
   170  164  165 1   
   171  164  172 1   
   172  164  173 1   
   173  165  166 1   
   174  165  167 1   
   175  174  175 1   
   176  174  179 1   
   177  175  176 1   
   178  175  177 1   
   179  175  178 1   
   180  181  182 1   
   181  181  183 1   
   182  184  185 1   
   183  184  186 1   
@<TRIPOS>SUBSTRUCTURE
     1 MOL         1 TEMP              0 ****  ****    0 ROOT
