@<TRIPOS>MOLECULE
MOL
  175   173     1     0     0
SMALL
resp


@<TRIPOS>ATOM
      1 C1          0.5040    3.8690    5.5310 c3        1 MOL     -0.376060
      2 C2         -0.1280    3.9820    4.1270 c         1 MOL      0.759124
      3 O1          0.5750    4.1180    3.1660 o         1 MOL     -0.557379
      4 H1          1.5830    3.9950    5.4540 hc        1 MOL      0.085615
      5 H2          0.0940    4.6440    6.1780 hc        1 MOL      0.085615
      6 H3          0.2820    2.8890    5.9520 hc        1 MOL      0.085615
      7 N1         -1.4350    3.8210    4.0220 n         1 MOL     -0.695533
      8 C3         -2.0680    3.5590    2.7020 c3        1 MOL      0.191546
      9 C4         -2.1410    4.7580    1.7390 c         1 MOL      0.560428
     10 O2         -2.1020    5.9540    2.1430 o         1 MOL     -0.583162
     11 C5         -3.5300    3.0490    2.9110 c3        1 MOL     -0.184153
     12 C6         -4.2360    2.7460    1.5960 c         1 MOL      0.614565
     13 O3         -3.7000    2.0540    0.7160 o         1 MOL     -0.662892
     14 O4         -5.2200    3.4800    1.2970 o         1 MOL     -0.662892
     15 H4         -1.9880    3.8430    4.8720 hn        1 MOL      0.330443
     16 H5         -1.5610    2.7200    2.2370 h1        1 MOL      0.077924
     17 H6         -4.1140    3.7650    3.4890 hc        1 MOL      0.022495
     18 H7         -3.5160    2.1280    3.4910 hc        1 MOL      0.022495
     19 N2         -2.1470    4.4400    0.4480 n         1 MOL     -0.456608
     20 C7         -2.1080    5.3530   -0.6950 c3        1 MOL      0.366256
     21 C8         -3.0340    4.9410   -1.8890 c         1 MOL      0.363904
     22 O5         -2.9070    5.5790   -2.9490 o         1 MOL     -0.573719
     23 C9         -0.6970    5.5450   -1.1200 c3        1 MOL     -0.080284
     24 H8         -2.0700    3.4570    0.2570 hn        1 MOL      0.272507
     25 H9         -2.4480    6.3650   -0.4630 h1        1 MOL     -0.008605
     26 H10        -0.2800    5.9710   -0.2090 hc        1 MOL      0.006508
     27 H11        -0.1570    4.5970   -1.2110 hc        1 MOL      0.006508
     28 H12        -0.4860    6.2480   -1.9230 hc        1 MOL      0.006508
     29 N3         -3.9030    3.9370   -1.7820 n         1 MOL     -0.210359
     30 C10        -4.8080    3.4610   -2.8460 c3        1 MOL      0.144708
     31 C11        -5.9990    2.7960   -2.3040 c         1 MOL      0.367047
     32 O6         -7.0610    2.8410   -2.9550 o         1 MOL     -0.560729
     33 C12        -3.9400    2.5040   -3.7580 c3        1 MOL     -0.121310
     34 C13        -3.2730    1.3270   -3.0430 c         1 MOL      0.654029
     35 O7         -2.2090    0.8900   -3.5470 o         1 MOL     -0.683830
     36 O8         -3.6230    0.9000   -1.9690 o         1 MOL     -0.683830
     37 H13        -4.0520    3.5490   -0.8610 hn        1 MOL      0.046141
     38 H14        -5.1700    4.2800   -3.4720 h1        1 MOL      0.038583
     39 H15        -3.2270    3.0450   -4.3740 hc        1 MOL      0.027122
     40 H16        -4.7100    2.1360   -4.4430 hc        1 MOL      0.027122
     41 N4         -5.9480    2.1410   -1.0840 n         1 MOL     -0.124399
     42 C14        -7.1910    1.5150   -0.5220 c3        1 MOL     -0.257003
     43 C15        -7.3830    0.0300   -0.8710 c         1 MOL      0.525084
     44 O9         -8.4730   -0.5650   -0.6900 o         1 MOL     -0.611238
     45 H17        -5.1000    1.9480   -0.5790 hn        1 MOL      0.314606
     46 H18        -8.0910    2.0650   -0.7880 h1        1 MOL      0.119916
     47 H19        -7.0860    1.6090    0.5580 h1        1 MOL      0.119916
     48 N5         -6.3210   -0.6450   -1.4210 n         1 MOL     -0.184603
     49 C16        -6.2920   -2.0440   -1.8130 c3        1 MOL     -0.039794
     50 C17        -6.1510   -3.1000   -0.6830 c         1 MOL      0.436519
     51 O10        -6.0770   -4.3210   -0.8970 o         1 MOL     -0.502284
     52 C18        -5.2740   -2.2520   -2.9720 c3        1 MOL     -0.165653
     53 C19        -3.8060   -2.3080   -2.5310 c         1 MOL      0.610201
     54 N6         -2.9480   -2.5100   -3.4580 n         1 MOL     -0.650422
     55 O11        -3.4300   -2.0930   -1.4300 o         1 MOL     -0.474624
     56 H20        -5.4740   -0.0990   -1.5250 hn        1 MOL      0.098801
     57 H21        -7.2480   -2.2440   -2.3110 h1        1 MOL      0.116761
     58 H22        -5.4170   -1.3920   -3.6160 hc        1 MOL      0.050090
     59 H23        -5.5810   -3.1830   -3.4550 hc        1 MOL      0.050090
     60 H24        -3.1950   -2.6980   -4.4220 hn        1 MOL      0.330434
     61 H25        -1.9930   -2.2950   -3.1940 hn        1 MOL      0.330434
     62 N7         -6.2580   -2.7010    0.5930 n         1 MOL     -0.315698
     63 C20        -6.3350   -3.6030    1.7360 c3        1 MOL     -0.109890
     64 C21        -5.0330   -4.3880    2.0360 c         1 MOL      0.387918
     65 O12        -5.0600   -5.2880    2.8690 o         1 MOL     -0.554791
     66 H26        -6.6060   -1.7650    0.7490 hn        1 MOL      0.288896
     67 H27        -7.1130   -4.3600    1.7180 h1        1 MOL      0.093414
     68 H28        -6.6440   -2.9580    2.5620 h1        1 MOL      0.093414
     69 N8         -3.9100   -3.9750    1.4660 n         1 MOL      0.057057
     70 C22        -2.6040   -4.6920    1.4900 c3        1 MOL     -0.118224
     71 C23        -1.4720   -3.6740    1.4240 c         1 MOL      0.248408
     72 O13        -1.7060   -2.6080    0.8750 o         1 MOL     -0.359719
     73 C24        -2.3120   -5.6570    0.3090 c3        1 MOL      0.536257
     74 C25        -3.5120   -6.5070   -0.0560 c3        1 MOL     -0.292803
     75 O14        -2.1260   -4.9260   -0.8680 oh        1 MOL     -0.628542
     76 H29        -3.9200   -3.0660    1.0350 hn        1 MOL     -0.062351
     77 H30        -2.5480   -5.2420    2.4250 h1        1 MOL      0.044526
     78 H31        -1.4790   -6.3070    0.5360 h1        1 MOL     -0.060337
     79 H32        -1.8160   -4.0430   -0.6540 ho        1 MOL      0.359007
     80 H33        -3.2960   -7.2220   -0.8480 hc        1 MOL      0.066061
     81 H34        -3.7030   -7.1670    0.7900 hc        1 MOL      0.066061
     82 H35        -4.4210   -5.9420   -0.2520 hc        1 MOL      0.066061
     83 N9         -0.2070   -4.0230    1.7800 n         1 MOL     -0.326319
     84 C26         0.9120   -3.1740    1.6210 c3        1 MOL     -0.131509
     85 C27         1.6030   -3.4470    0.3250 c         1 MOL      0.520027
     86 O15         2.0120   -4.5540   -0.0140 o         1 MOL     -0.566638
     87 C28         1.8010   -3.1520    2.8770 c3        1 MOL      0.142734
     88 C29         0.8900   -2.8880    4.1720 c3        1 MOL      0.134495
     89 C30         2.7520   -1.9230    2.7980 c3        1 MOL     -0.193473
     90 C31         1.6230   -2.8240    5.5000 c3        1 MOL     -0.298247
     91 H36         0.0110   -4.9350    2.1730 hn        1 MOL      0.266950
     92 H37         0.4930   -2.1770    1.5090 h1        1 MOL      0.144643
     93 H38         2.3780   -4.0620    3.0030 hc        1 MOL     -0.001256
     94 H39         0.2370   -3.7370    4.3840 hc        1 MOL     -0.018808
     95 H40         0.3130   -1.9720    4.0800 hc        1 MOL     -0.018808
     96 H41         2.1960   -0.9910    2.9340 hc        1 MOL      0.029654
     97 H42         3.4080   -1.9180    3.6760 hc        1 MOL      0.029654
     98 H43         3.4060   -1.9960    1.9290 hc        1 MOL      0.029654
     99 H44         2.2420   -1.9210    5.5890 hc        1 MOL      0.065669
    100 H45         0.9160   -2.6140    6.2980 hc        1 MOL      0.065669
    101 H46         2.1760   -3.7420    5.6850 hc        1 MOL      0.065669
    102 N10         1.8150   -2.2780   -0.3390 n         1 MOL     -0.158580
    103 C32         2.6370   -1.9490   -1.4970 c3        1 MOL      0.004749
    104 C33         3.9230   -1.3430   -0.9920 c         1 MOL      0.358674
    105 O16         4.0780   -0.5820   -0.0430 o         1 MOL     -0.185411
    106 C34         1.8160   -1.0530   -2.4490 c3        1 MOL     -0.131710
    107 C35         0.3170   -1.3840   -2.5640 c         1 MOL      0.584608
    108 O17        -0.4590   -0.9210   -1.6370 o         1 MOL     -0.608586
    109 O18        -0.1350   -1.9840   -3.5950 o         1 MOL     -0.608586
    110 H47         1.2700   -1.4810   -0.0600 hn        1 MOL      0.029639
    111 H48         2.9410   -2.8510   -2.0270 h1        1 MOL      0.063633
    112 H49         2.2230   -1.2420   -3.4430 hc        1 MOL      0.051899
    113 H50         1.9510    0.0200   -2.2790 hc        1 MOL      0.051899
    114 N11         4.9840   -1.7280   -1.6830 n         1 MOL     -0.532219
    115 C36         6.3540   -1.3960   -1.3460 c3        1 MOL      0.271894
    116 C37         6.6460    0.0730   -1.0450 c         1 MOL      0.246776
    117 O19         7.4020    0.2960   -0.1060 o         1 MOL     -0.455723
    118 C38         7.3060   -1.9100   -2.4120 c3        1 MOL     -0.350213
    119 C39         8.7880   -1.8390   -1.9610 ca        1 MOL      0.157799
    120 C40         9.3870   -2.9180   -1.2240 ca        1 MOL     -0.188128
    121 C41         9.6370   -0.7790   -2.3310 ca        1 MOL     -0.188128
    122 C42        10.7330   -2.9820   -0.9680 ca        1 MOL     -0.079393
    123 C43        10.9910   -0.7980   -1.8800 ca        1 MOL     -0.079393
    124 C44        11.5620   -1.9120   -1.2500 ca        1 MOL     -0.148938
    125 H51         4.8300   -2.3180   -2.4850 hn        1 MOL      0.305112
    126 H52         6.4730   -1.9410   -0.4100 h1        1 MOL      0.078644
    127 H53         7.1420   -1.3380   -3.3320 hc        1 MOL      0.111398
    128 H54         7.1850   -2.9700   -2.6180 hc        1 MOL      0.111398
    129 H55         8.8310   -3.7810   -0.8630 ha        1 MOL      0.118920
    130 H56         9.2230    0.0900   -2.8130 ha        1 MOL      0.118920
    131 H57        11.2180   -3.8190   -0.4740 ha        1 MOL      0.100509
    132 H58        11.5250    0.1110   -2.1060 ha        1 MOL      0.100509
    133 H59        12.5990   -1.9260   -0.9490 ha        1 MOL      0.112164
    134 N12         6.0790    1.0830   -1.7500 n         1 MOL     -0.008281
    135 C45         6.4580    2.4950   -1.3730 c3        1 MOL      0.044122
    136 C46         5.9250    2.8950   -0.0250 c         1 MOL      0.274936
    137 O20         6.4130    3.8250    0.6800 o         1 MOL     -0.522622
    138 C47         5.9600    3.3780   -2.5370 c3        1 MOL     -0.173268
    139 C48         5.0520    2.4890   -3.4360 c3        1 MOL     -0.067838
    140 C49         5.3870    1.0620   -3.0220 c3        1 MOL      0.145077
    141 H60         7.5290    2.6670   -1.2310 h1        1 MOL      0.071923
    142 H61         5.3040    4.1560   -2.1510 hc        1 MOL      0.068145
    143 H62         6.8130    3.7550   -3.0930 hc        1 MOL      0.068145
    144 H63         4.0030    2.5470   -3.1520 hc        1 MOL      0.054517
    145 H64         5.1500    2.6420   -4.5050 hc        1 MOL      0.054517
    146 H65         4.4090    0.5990   -3.0000 h1        1 MOL     -0.033701
    147 H66         6.0150    0.5660   -3.7650 h1        1 MOL     -0.033701
    148 N13         4.8820    2.2290    0.3850 n         1 MOL      0.036190
    149 C50         4.1730    2.4000    1.6690 c3        1 MOL     -0.276014
    150 C51         4.9200    1.6540    2.6830 c         1 MOL      0.499561
    151 O21         5.0840    2.0840    3.8340 o         1 MOL     -0.554506
    152 C52         2.7810    1.8300    1.7210 c3        1 MOL     -0.129132
    153 C53         1.8270    2.1560    0.6330 c3        1 MOL      0.018199
    154 C54         0.4810    1.3690    0.6130 c         1 MOL      0.639956
    155 O22        -0.5650    1.8170    0.0330 o         1 MOL     -0.730050
    156 O23         0.4250    0.2290    1.1460 o         1 MOL     -0.730050
    157 H67         4.5130    1.5480   -0.2660 hn        1 MOL      0.091804
    158 H68         4.1630    3.4450    1.9600 h1        1 MOL      0.158072
    159 H69         2.3420    1.9390    2.7100 hc        1 MOL      0.096724
    160 H70         2.7410    0.7430    1.7760 hc        1 MOL      0.096724
    161 H71         2.2420    2.1080   -0.3770 hc        1 MOL      0.024046
    162 H72         1.5060    3.1900    0.7800 hc        1 MOL      0.024046
    163 N14         5.5260    0.5030    2.2770 n         1 MOL     -0.017393
    164 C55         6.4450   -0.1980    3.1160 c3        1 MOL     -0.194841
    165 H73         7.4590    0.1430    2.9080 h1        1 MOL      0.062232
    166 H74         6.2040   -0.0040    4.1620 h1        1 MOL      0.062232
    167 H75         6.3740   -1.2670    2.9200 h1        1 MOL      0.062232
    168 H76         5.3310    0.0950    1.3710 hn        1 MOL      0.024510
    169 Ca1        -2.2070   -0.0350   -0.1550 Ca        1 MOL      1.693630
    170 O24        -1.7590   -0.1010    2.5760 oh        1 MOL     -0.899843
    171 H77        -1.7670    0.1000    3.5100 ho        1 MOL      0.434156
    172 H78        -0.8340   -0.0760    2.3310 ho        1 MOL      0.434156
    173 O25        -4.2170   -0.5880    1.7190 oh        1 MOL     -0.899843
    174 H79        -3.3970   -0.5790    2.2180 ho        1 MOL      0.434156
    175 H80        -4.8990   -0.5970    2.3860 ho        1 MOL      0.434156
@<TRIPOS>BOND
     1    1    2 1   
     2    1    4 1   
     3    1    5 1   
     4    1    6 1   
     5    2    3 2   
     6    2    7 1   
     7    7    8 1   
     8    7   15 1   
     9    8    9 1   
    10    8   11 1   
    11    8   16 1   
    12    9   10 2   
    13    9   19 1   
    14   11   12 1   
    15   11   17 1   
    16   11   18 1   
    17   12   13 1   
    18   12   14 1   
    19   19   20 1   
    20   19   24 1   
    21   20   21 1   
    22   20   23 1   
    23   20   25 1   
    24   21   22 2   
    25   21   29 1   
    26   23   26 1   
    27   23   27 1   
    28   23   28 1   
    29   29   30 1   
    30   29   37 1   
    31   30   31 1   
    32   30   33 1   
    33   30   38 1   
    34   31   32 2   
    35   31   41 1   
    36   33   34 1   
    37   33   39 1   
    38   33   40 1   
    39   34   35 1   
    40   34   36 1   
    41   41   42 1   
    42   41   45 1   
    43   42   43 1   
    44   42   46 1   
    45   42   47 1   
    46   43   44 2   
    47   43   48 1   
    48   48   49 1   
    49   48   56 1   
    50   49   50 1   
    51   49   52 1   
    52   49   57 1   
    53   50   51 2   
    54   50   62 1   
    55   52   53 1   
    56   52   58 1   
    57   52   59 1   
    58   53   54 1   
    59   53   55 2   
    60   54   60 1   
    61   54   61 1   
    62   62   63 1   
    63   62   66 1   
    64   63   64 1   
    65   63   67 1   
    66   63   68 1   
    67   64   65 2   
    68   64   69 1   
    69   69   70 1   
    70   69   76 1   
    71   70   71 1   
    72   70   73 1   
    73   70   77 1   
    74   71   72 2   
    75   71   83 1   
    76   73   74 1   
    77   73   75 1   
    78   73   78 1   
    79   74   80 1   
    80   74   81 1   
    81   74   82 1   
    82   75   79 1   
    83   83   84 1   
    84   83   91 1   
    85   84   85 1   
    86   84   87 1   
    87   84   92 1   
    88   85   86 2   
    89   85  102 1   
    90   87   88 1   
    91   87   89 1   
    92   87   93 1   
    93   88   90 1   
    94   88   94 1   
    95   88   95 1   
    96   89   96 1   
    97   89   97 1   
    98   89   98 1   
    99   90   99 1   
   100   90  100 1   
   101   90  101 1   
   102  102  103 1   
   103  102  110 1   
   104  103  104 1   
   105  103  106 1   
   106  103  111 1   
   107  104  105 2   
   108  104  114 1   
   109  106  107 1   
   110  106  112 1   
   111  106  113 1   
   112  107  108 1   
   113  107  109 1   
   114  114  115 1   
   115  114  125 1   
   116  115  116 1   
   117  115  118 1   
   118  115  126 1   
   119  116  117 2   
   120  116  134 1   
   121  118  119 1   
   122  118  127 1   
   123  118  128 1   
   124  119  120 ar  
   125  119  121 ar  
   126  120  122 ar  
   127  120  129 1   
   128  121  123 ar  
   129  121  130 1   
   130  122  124 ar  
   131  122  131 1   
   132  123  124 ar  
   133  123  132 1   
   134  124  133 1   
   135  134  135 1   
   136  134  140 1   
   137  135  136 1   
   138  135  138 1   
   139  135  141 1   
   140  136  137 2   
   141  136  148 1   
   142  138  139 1   
   143  138  142 1   
   144  138  143 1   
   145  139  140 1   
   146  139  144 1   
   147  139  145 1   
   148  140  146 1   
   149  140  147 1   
   150  148  149 1   
   151  148  157 1   
   152  149  150 1   
   153  149  152 1   
   154  149  158 1   
   155  150  151 2   
   156  150  163 1   
   157  152  153 1   
   158  152  159 1   
   159  152  160 1   
   160  153  154 1   
   161  153  161 1   
   162  153  162 1   
   163  154  155 1   
   164  154  156 1   
   165  163  164 1   
   166  163  168 1   
   167  164  165 1   
   168  164  166 1   
   169  164  167 1   
   170  170  171 1   
   171  170  172 1   
   172  173  174 1   
   173  173  175 1   
@<TRIPOS>SUBSTRUCTURE
     1 MOL         1 TEMP              0 ****  ****    0 ROOT
