@<TRIPOS>MOLECULE
MOL
  186   183     1     0     0
SMALL
resp


@<TRIPOS>ATOM
      1 C1          0.5400   -2.1060    6.1190 c3        1 MOL     -0.316753
      2 C2          1.0560   -2.2370    4.6440 c         1 MOL      0.756547
      3 O1          0.4320   -2.8150    3.7620 o         1 MOL     -0.589651
      4 H1          1.3720   -1.8460    6.7730 hc        1 MOL      0.072625
      5 H2         -0.2200   -1.3250    6.1710 hc        1 MOL      0.072625
      6 H3          0.1090   -3.0550    6.4400 hc        1 MOL      0.072625
      7 N1          2.2620   -1.6950    4.4060 n         1 MOL     -0.681384
      8 C3          2.7790   -1.5740    3.0620 c3        1 MOL      0.484747
      9 C4          3.3370   -2.8630    2.4520 c         1 MOL      0.383950
     10 O2          4.2730   -3.4380    3.0340 o         1 MOL     -0.561229
     11 C5          3.8970   -0.4630    3.0270 c3        1 MOL     -0.551159
     12 C6          4.4770   -0.2300    1.6600 c         1 MOL      1.108654
     13 O3          3.9030   -0.6150    0.6470 o         1 MOL     -0.847296
     14 O4          5.5430    0.3390    1.5190 o         1 MOL     -0.847296
     15 H4          2.6700   -1.0720    5.0950 hn        1 MOL      0.325465
     16 H5          1.9910   -1.2950    2.3740 h1        1 MOL     -0.061356
     17 H6          4.7000   -0.9030    3.6110 hc        1 MOL      0.097613
     18 H7          3.4190    0.4750    3.2890 hc        1 MOL      0.097613
     19 N2          2.6980   -3.4350    1.3860 n         1 MOL     -0.126508
     20 C7          2.9800   -4.7520    0.8880 c3        1 MOL     -0.020997
     21 C8          4.0580   -4.9070   -0.1830 c         1 MOL      0.390182
     22 O5          4.8650   -5.8240   -0.1390 o         1 MOL     -0.574002
     23 C9          1.7050   -5.3650    0.3410 c3        1 MOL      0.127696
     24 C10         0.5820   -5.4260    1.4690 c3        1 MOL      0.229379
     25 C11         1.8770   -6.7720   -0.3160 c3        1 MOL     -0.290478
     26 C12         0.9250   -6.3130    2.6630 c3        1 MOL     -0.217168
     27 H8          1.9240   -2.9460    0.9570 hn        1 MOL      0.079579
     28 H9          3.2740   -5.4190    1.6960 h1        1 MOL      0.067253
     29 H10         1.2170   -4.7490   -0.4160 hc        1 MOL      0.010219
     30 H11        -0.3270   -5.7480    0.9750 hc        1 MOL     -0.035044
     31 H12         0.2000   -4.4730    1.8360 hc        1 MOL     -0.035044
     32 H13         2.5710   -7.4230    0.2220 hc        1 MOL      0.057755
     33 H14         0.9220   -7.2640   -0.4940 hc        1 MOL      0.057755
     34 H15         2.4020   -6.6520   -1.2570 hc        1 MOL      0.057755
     35 H16         0.8740   -7.3560    2.3590 hc        1 MOL      0.029783
     36 H17         1.8550   -6.2010    3.2260 hc        1 MOL      0.029783
     37 H18         0.1180   -6.1680    3.3840 hc        1 MOL      0.029783
     38 N3          4.1970   -3.9380   -1.0740 n         1 MOL     -0.200625
     39 C13         5.2700   -3.8140   -2.1880 c3        1 MOL      0.058216
     40 C14         6.5250   -2.9340   -1.7550 c         1 MOL      0.370306
     41 O6          7.5650   -2.9230   -2.3580 o         1 MOL     -0.538477
     42 C15         4.7190   -3.3340   -3.5740 c3        1 MOL     -0.360281
     43 C16         3.7020   -2.2460   -3.5440 c         1 MOL      0.825065
     44 O7          3.4610   -1.6000   -2.5130 o         1 MOL     -0.731995
     45 O8          3.0370   -2.0850   -4.6190 o         1 MOL     -0.731995
     46 H19         3.4850   -3.2270   -1.0710 hn        1 MOL      0.205787
     47 H20         5.5810   -4.8360   -2.4280 h1        1 MOL      0.082746
     48 H21         4.2290   -4.2250   -3.9590 hc        1 MOL      0.093924
     49 H22         5.5670   -3.0840   -4.2010 hc        1 MOL      0.093924
     50 N4          6.4280   -2.2360   -0.5990 n         1 MOL     -0.087720
     51 C17         7.5330   -1.7320    0.1670 c3        1 MOL     -0.258744
     52 C18         7.8340   -0.2810   -0.2440 c         1 MOL      0.621729
     53 O9          8.9370    0.1450    0.0100 o         1 MOL     -0.631512
     54 H23         5.5060   -2.3460   -0.1910 hn        1 MOL      0.152747
     55 H24         8.4050   -2.3830    0.1700 h1        1 MOL      0.119511
     56 H25         7.2010   -1.6820    1.2090 h1        1 MOL      0.119511
     57 N5          6.9380    0.3520   -1.0090 n         1 MOL     -0.293801
     58 C19         7.1400    1.6320   -1.7330 c3        1 MOL      0.089528
     59 C20         7.1490    2.8080   -0.7900 c         1 MOL      0.414407
     60 O10         7.2260    3.9740   -1.2270 o         1 MOL     -0.574994
     61 C21         6.2300    1.8440   -2.9880 c3        1 MOL     -0.318144
     62 C22         4.7470    1.7430   -2.6430 c         1 MOL      0.872040
     63 O11         3.9230    1.6640   -3.5810 o         1 MOL     -0.766506
     64 O12         4.3370    1.7400   -1.4770 o         1 MOL     -0.766506
     65 H26         6.0110   -0.0550   -1.0790 hn        1 MOL      0.185739
     66 H27         8.1700    1.5980   -2.0970 h1        1 MOL      0.057107
     67 H28         6.4390    0.9770   -3.6180 hc        1 MOL      0.084561
     68 H29         6.4800    2.8080   -3.4310 hc        1 MOL      0.084561
     69 N6          6.7980    2.6270    0.5090 n         1 MOL     -0.321525
     70 C23         6.7380    3.6800    1.5570 c3        1 MOL     -0.030282
     71 C24         5.2810    4.1510    1.8100 c         1 MOL      0.480592
     72 O13         5.1170    5.0910    2.6250 o         1 MOL     -0.601472
     73 H30         6.6030    1.6660    0.7620 hn        1 MOL      0.311360
     74 H31         7.4290    4.4900    1.3620 h1        1 MOL      0.069418
     75 H32         7.1440    3.3040    2.5010 h1        1 MOL      0.069418
     76 N7          4.2640    3.6260    1.0850 n         1 MOL     -0.252378
     77 C25         2.9000    4.1270    1.0660 c3        1 MOL     -0.062208
     78 C26         1.8520    3.0580    1.1270 c         1 MOL      0.659554
     79 O14         2.1660    1.9200    0.8010 o         1 MOL     -0.676919
     80 C27         2.5870    5.0680   -0.1710 c3        1 MOL     -0.006224
     81 C28         3.2430    6.4480    0.2010 c3        1 MOL     -0.224425
     82 C29         2.7230    7.6350   -0.6240 c         1 MOL      0.654827
     83 N8          3.5360    8.5470   -0.9860 n         1 MOL     -0.753999
     84 O15         1.5580    7.8050   -0.7840 o         1 MOL     -0.585888
     85 H33         4.4370    2.8130    0.5070 hn        1 MOL      0.248467
     86 H34         2.6430    4.7750    1.9000 h1        1 MOL      0.056351
     87 H35         1.5300    5.2540   -0.3290 hc        1 MOL      0.058941
     88 H36         3.0180    4.7490   -1.1290 hc        1 MOL      0.058941
     89 H37         4.3230    6.4140    0.0200 hc        1 MOL      0.088013
     90 H38         3.1290    6.7140    1.2510 hc        1 MOL      0.088013
     91 H39         4.4910    8.6050   -0.6640 hn        1 MOL      0.336462
     92 H40         3.0680    9.3660   -1.3720 hn        1 MOL      0.336462
     93 N9          0.6120    3.3950    1.5450 n         1 MOL     -0.521204
     94 C30        -0.5320    2.4070    1.8190 c3        1 MOL      0.299807
     95 C31        -1.6400    2.7550    0.7930 c         1 MOL      0.224860
     96 O16        -2.2680    3.8310    0.8600 o         1 MOL     -0.544114
     97 C32        -1.0520    2.3260    3.2250 c3        1 MOL      0.218739
     98 C33        -1.9200    1.0850    3.4100 c3        1 MOL     -0.277064
     99 C34         0.0340    2.3470    4.3010 c3        1 MOL     -0.277064
    100 H41         0.4790    4.3650    1.7970 hn        1 MOL      0.280015
    101 H42        -0.1520    1.4210    1.5410 h1        1 MOL      0.002406
    102 H43        -1.6790    3.2030    3.3660 hc        1 MOL     -0.039376
    103 H44        -2.8530    1.0680    2.8510 hc        1 MOL      0.055644
    104 H45        -1.4110    0.1360    3.2520 hc        1 MOL      0.055644
    105 H46        -2.2480    1.0050    4.4420 hc        1 MOL      0.055644
    106 H47         0.5520    3.3020    4.2890 hc        1 MOL      0.055644
    107 H48        -0.4460    2.2460    5.2740 hc        1 MOL      0.055644
    108 H49         0.6740    1.4750    4.2030 hc        1 MOL      0.055644
    109 N10        -1.9860    1.8100   -0.0390 n         1 MOL      0.003855
    110 C35        -3.2000    1.8920   -0.8850 c3        1 MOL      0.008409
    111 C36        -4.4800    1.6560   -0.0610 c         1 MOL      0.493526
    112 O17        -4.4450    0.9460    0.9210 o         1 MOL     -0.388614
    113 C37        -3.0620    0.9140   -2.1060 c3        1 MOL     -0.117673
    114 C38        -3.8000    1.2570   -3.3670 c         1 MOL      0.679895
    115 N11        -3.2960    0.8940   -4.5260 n         1 MOL     -0.813967
    116 O18        -4.8980    1.7640   -3.2950 o         1 MOL     -0.618365
    117 H50        -1.3460    1.0910   -0.3380 hn        1 MOL      0.175231
    118 H51        -3.3030    2.9340   -1.2150 h1        1 MOL      0.040731
    119 H52        -3.4470   -0.0570   -1.8130 hc        1 MOL      0.018946
    120 H53        -2.0060    0.8560   -2.3770 hc        1 MOL      0.018946
    121 H54        -2.4870    0.3010   -4.5520 hn        1 MOL      0.393851
    122 H55        -3.8450    1.1460   -5.3410 hn        1 MOL      0.393851
    123 N12        -5.5990    2.1920   -0.5730 n         1 MOL     -0.584518
    124 C39        -6.8350    1.7270   -0.0990 c3        1 MOL      0.281183
    125 C40        -6.9280    0.1610    0.0120 c         1 MOL      0.496656
    126 O19        -7.3870   -0.3930    1.0010 o         1 MOL     -0.502232
    127 C41        -7.9150    2.2100   -1.1670 c3        1 MOL     -0.054555
    128 C42        -9.3160    2.1360   -0.6110 ca        1 MOL     -0.005243
    129 C43        -9.6750    2.7410    0.6070 ca        1 MOL     -0.190425
    130 C44       -10.2970    1.3080   -1.2430 ca        1 MOL     -0.190425
    131 C45       -10.8860    2.4560    1.2460 ca        1 MOL     -0.193883
    132 C46       -11.5770    1.1370   -0.6990 ca        1 MOL     -0.193883
    133 C47       -11.8770    1.6820    0.5790 ca        1 MOL      0.264005
    134 O20       -13.0170    1.4060    1.2510 oh        1 MOL     -0.490934
    135 H56        -5.5820    2.6470   -1.4660 hn        1 MOL      0.308628
    136 H57        -7.0970    2.1590    0.8650 h1        1 MOL      0.013132
    137 H58        -7.8870    1.5530   -2.0340 hc        1 MOL      0.033191
    138 H59        -7.6490    3.2440   -1.4030 hc        1 MOL      0.033191
    139 H60        -8.9250    3.3800    1.0480 ha        1 MOL      0.146343
    140 H61       -10.0710    0.8210   -2.1840 ha        1 MOL      0.146343
    141 H62       -11.1640    3.0030    2.1360 ha        1 MOL      0.123532
    142 H63       -12.2380    0.4630   -1.2340 ha        1 MOL      0.123532
    143 H64       -13.6000    0.7850    0.8040 ho        1 MOL      0.369792
    144 N13        -6.4000   -0.5420   -0.9560 n         1 MOL     -0.429640
    145 C48        -6.3190   -1.9900   -0.8550 c3        1 MOL      0.011893
    146 C49        -5.4120   -2.5520    0.2420 c         1 MOL      0.262245
    147 O21        -5.6600   -3.5890    0.8440 o         1 MOL     -0.513594
    148 C50        -5.6910   -2.5670   -2.1120 c3        1 MOL      0.036410
    149 C51        -6.5490   -2.3360   -3.3290 c3        1 MOL     -0.268911
    150 C52        -5.9480   -3.0970   -4.5520 c         1 MOL      0.796916
    151 O22        -6.4080   -2.8790   -5.6730 o         1 MOL     -0.759456
    152 O23        -5.0100   -3.8770   -4.3480 o         1 MOL     -0.759456
    153 H65        -6.1310   -0.0760   -1.8110 hn        1 MOL      0.369575
    154 H66        -7.3370   -2.3780   -0.8050 h1        1 MOL      0.101042
    155 H67        -5.7040   -3.6490   -2.0200 hc        1 MOL      0.066294
    156 H68        -4.7160   -2.1600   -2.3870 hc        1 MOL      0.066294
    157 H69        -6.6970   -1.2850   -3.5800 hc        1 MOL      0.002565
    158 H70        -7.5270   -2.7870   -3.1380 hc        1 MOL      0.002565
    159 N14        -4.2820   -1.9490    0.5660 n         1 MOL     -0.031673
    160 C53        -3.4100   -2.3710    1.6490 c3        1 MOL     -0.037368
    161 C54        -3.9420   -1.8660    3.0780 c         1 MOL      0.383419
    162 O24        -3.5090   -2.3500    4.1000 o         1 MOL     -0.570143
    163 C55        -1.9740   -1.8110    1.2590 c3        1 MOL     -0.013148
    164 C56        -1.4280   -2.2120   -0.1390 c3        1 MOL     -0.110032
    165 C57        -0.1510   -1.5020   -0.5170 c         1 MOL      0.764020
    166 O25         0.8930   -2.2170   -0.6950 o         1 MOL     -0.716888
    167 O26        -0.1050   -0.2440   -0.5830 o         1 MOL     -0.716888
    168 H71        -4.0350   -1.0760    0.1240 hn        1 MOL     -0.021157
    169 H72        -3.3010   -3.4540    1.6250 h1        1 MOL      0.103284
    170 H73        -1.2840   -2.2820    1.9470 hc        1 MOL      0.070938
    171 H74        -2.0040   -0.7250    1.3620 hc        1 MOL      0.070938
    172 H75        -2.1050   -2.0890   -0.9850 hc        1 MOL      0.009235
    173 H76        -1.2840   -3.2860   -0.0200 hc        1 MOL      0.009235
    174 N15        -4.9070   -1.0100    3.0660 n         1 MOL      0.107820
    175 C58        -5.6240   -0.3740    4.2500 c3        1 MOL     -0.202826
    176 H77        -4.9050   -0.1670    5.0410 h1        1 MOL      0.079027
    177 H78        -6.0930    0.5580    3.9330 h1        1 MOL      0.079027
    178 H79        -6.3880   -1.0570    4.6230 h1        1 MOL      0.079027
    179 H80        -5.0780   -0.7560    2.1020 hn        1 MOL     -0.055920
    180 Ca1         2.3760    0.2540   -1.2350 Ca        1 MOL      1.750756
    181 O27         0.9270    2.2470   -2.4550 oh        1 MOL     -0.893527
    182 H81         1.4280    2.7590   -3.0890 ho        1 MOL      0.423269
    183 H82         0.3570    1.6990   -2.9940 ho        1 MOL      0.423269
    184 O28         0.8880   -0.3860   -3.4540 oh        1 MOL     -0.893527
    185 H83         1.4360   -0.4280   -4.2300 ho        1 MOL      0.423269
    186 H84         0.1610   -0.9780   -3.6310 ho        1 MOL      0.423269
@<TRIPOS>BOND
     1    1    2 1   
     2    1    4 1   
     3    1    5 1   
     4    1    6 1   
     5    2    3 2   
     6    2    7 1   
     7    7    8 1   
     8    7   15 1   
     9    8    9 1   
    10    8   11 1   
    11    8   16 1   
    12    9   10 2   
    13    9   19 1   
    14   11   12 1   
    15   11   17 1   
    16   11   18 1   
    17   12   13 1   
    18   12   14 1   
    19   19   20 1   
    20   19   27 1   
    21   20   21 1   
    22   20   23 1   
    23   20   28 1   
    24   21   22 2   
    25   21   38 1   
    26   23   24 1   
    27   23   25 1   
    28   23   29 1   
    29   24   26 1   
    30   24   30 1   
    31   24   31 1   
    32   25   32 1   
    33   25   33 1   
    34   25   34 1   
    35   26   35 1   
    36   26   36 1   
    37   26   37 1   
    38   38   39 1   
    39   38   46 1   
    40   39   40 1   
    41   39   42 1   
    42   39   47 1   
    43   40   41 2   
    44   40   50 1   
    45   42   43 1   
    46   42   48 1   
    47   42   49 1   
    48   43   44 1   
    49   43   45 1   
    50   50   51 1   
    51   50   54 1   
    52   51   52 1   
    53   51   55 1   
    54   51   56 1   
    55   52   53 2   
    56   52   57 1   
    57   57   58 1   
    58   57   65 1   
    59   58   59 1   
    60   58   61 1   
    61   58   66 1   
    62   59   60 2   
    63   59   69 1   
    64   61   62 1   
    65   61   67 1   
    66   61   68 1   
    67   62   63 1   
    68   62   64 1   
    69   69   70 1   
    70   69   73 1   
    71   70   71 1   
    72   70   74 1   
    73   70   75 1   
    74   71   72 2   
    75   71   76 1   
    76   76   77 1   
    77   76   85 1   
    78   77   78 1   
    79   77   80 1   
    80   77   86 1   
    81   78   79 2   
    82   78   93 1   
    83   80   81 1   
    84   80   87 1   
    85   80   88 1   
    86   81   82 1   
    87   81   89 1   
    88   81   90 1   
    89   82   83 1   
    90   82   84 2   
    91   83   91 1   
    92   83   92 1   
    93   93   94 1   
    94   93  100 1   
    95   94   95 1   
    96   94   97 1   
    97   94  101 1   
    98   95   96 2   
    99   95  109 1   
   100   97   98 1   
   101   97   99 1   
   102   97  102 1   
   103   98  103 1   
   104   98  104 1   
   105   98  105 1   
   106   99  106 1   
   107   99  107 1   
   108   99  108 1   
   109  109  110 1   
   110  109  117 1   
   111  110  111 1   
   112  110  113 1   
   113  110  118 1   
   114  111  112 2   
   115  111  123 1   
   116  113  114 1   
   117  113  119 1   
   118  113  120 1   
   119  114  115 1   
   120  114  116 2   
   121  115  121 1   
   122  115  122 1   
   123  123  124 1   
   124  123  135 1   
   125  124  125 1   
   126  124  127 1   
   127  124  136 1   
   128  125  126 2   
   129  125  144 1   
   130  127  128 1   
   131  127  137 1   
   132  127  138 1   
   133  128  129 ar  
   134  128  130 ar  
   135  129  131 ar  
   136  129  139 1   
   137  130  132 ar  
   138  130  140 1   
   139  131  133 ar  
   140  131  141 1   
   141  132  133 ar  
   142  132  142 1   
   143  133  134 1   
   144  134  143 1   
   145  144  145 1   
   146  144  153 1   
   147  145  146 1   
   148  145  148 1   
   149  145  154 1   
   150  146  147 2   
   151  146  159 1   
   152  148  149 1   
   153  148  155 1   
   154  148  156 1   
   155  149  150 1   
   156  149  157 1   
   157  149  158 1   
   158  150  151 1   
   159  150  152 1   
   160  159  160 1   
   161  159  168 1   
   162  160  161 1   
   163  160  163 1   
   164  160  169 1   
   165  161  162 2   
   166  161  174 1   
   167  163  164 1   
   168  163  170 1   
   169  163  171 1   
   170  164  165 1   
   171  164  172 1   
   172  164  173 1   
   173  165  166 1   
   174  165  167 1   
   175  174  175 1   
   176  174  179 1   
   177  175  176 1   
   178  175  177 1   
   179  175  178 1   
   180  181  182 1   
   181  181  183 1   
   182  184  185 1   
   183  184  186 1   
@<TRIPOS>SUBSTRUCTURE
     1 MOL         1 TEMP              0 ****  ****    0 ROOT
