@<TRIPOS>MOLECULE
MOL
  175   173     1     0     0
SMALL
resp


@<TRIPOS>ATOM
      1 C1         -0.5330    3.2760    6.0250 c3        1 MOL     -0.318382
      2 C2         -0.8100    2.9540    4.5550 c         1 MOL      0.807741
      3 O1          0.0540    3.2220    3.7520 o         1 MOL     -0.559625
      4 H1         -0.0580    2.4180    6.5010 hc        1 MOL      0.069500
      5 H2          0.1290    4.1390    6.0910 hc        1 MOL      0.069500
      6 H3         -1.4730    3.4980    6.5320 hc        1 MOL      0.069500
      7 N1         -2.0090    2.3450    4.1770 n         1 MOL     -0.756041
      8 C3         -2.5330    2.2390    2.7740 c3        1 MOL      0.215044
      9 C4         -2.9110    3.6140    2.2030 c         1 MOL      0.689936
     10 O2         -3.3970    4.4690    2.9740 o         1 MOL     -0.615330
     11 C5         -3.7210    1.3150    2.8500 c3        1 MOL     -0.235603
     12 C6         -4.2100    0.8830    1.4580 c         1 MOL      0.814642
     13 O3         -5.3120    0.3770    1.4710 o         1 MOL     -0.697557
     14 O4         -3.5580    1.0930    0.4150 o         1 MOL     -0.697557
     15 H4         -2.6410    2.0010    4.8870 hn        1 MOL      0.344140
     16 H5         -1.7510    1.9370    2.0780 h1        1 MOL     -0.109118
     17 H6         -4.5000    1.9210    3.3220 hc        1 MOL      0.046269
     18 H7         -3.4140    0.4980    3.5010 hc        1 MOL      0.046269
     19 N2         -2.8210    3.8340    0.9090 n         1 MOL     -0.577659
     20 C7         -3.1250    5.1070    0.2830 c3        1 MOL      0.159357
     21 C8         -3.9170    5.0050   -1.0530 c         1 MOL      0.326010
     22 O5         -4.0920    6.0620   -1.7240 o         1 MOL     -0.528185
     23 C9         -1.6920    5.7340    0.1230 c3        1 MOL     -0.220745
     24 H8         -2.5610    3.1000    0.2620 hn        1 MOL      0.500663
     25 H9         -3.6090    5.7660    1.0070 h1        1 MOL      0.047184
     26 H10        -1.7540    6.7570   -0.2670 hc        1 MOL      0.068088
     27 H11        -1.1670    5.7140    1.0870 hc        1 MOL      0.068088
     28 H12        -1.0750    5.1470   -0.5520 hc        1 MOL      0.068088
     29 N3         -4.3310    3.8230   -1.5100 n         1 MOL     -0.049960
     30 C10        -5.2190    3.6140   -2.6840 c3        1 MOL     -0.091731
     31 C11        -6.5440    2.8510   -2.4430 c         1 MOL      0.438441
     32 O6         -7.4630    2.8750   -3.2690 o         1 MOL     -0.543582
     33 C12        -4.4260    2.8100   -3.8010 c3        1 MOL      0.139928
     34 C13        -3.8110    1.5190   -3.2500 c         1 MOL      0.524493
     35 O7         -4.5010    0.6930   -2.5900 o         1 MOL     -0.654751
     36 O8         -2.6120    1.3750   -3.5100 o         1 MOL     -0.654751
     37 H13        -4.0900    3.0010   -0.9850 hn        1 MOL     -0.061272
     38 H14        -5.4190    4.6220   -3.0660 h1        1 MOL      0.090603
     39 H15        -3.7370    3.4600   -4.3380 hc        1 MOL     -0.017403
     40 H16        -5.1630    2.6430   -4.5840 hc        1 MOL     -0.017403
     41 N4         -6.6230    2.2000   -1.3000 n         1 MOL     -0.293443
     42 C14        -7.8430    1.5070   -0.7780 c3        1 MOL     -0.085207
     43 C15        -7.9280   -0.0700   -0.9230 c         1 MOL      0.556333
     44 O9         -9.0350   -0.5900   -0.7420 o         1 MOL     -0.601746
     45 H17        -5.7490    2.2770   -0.7940 hn        1 MOL      0.240279
     46 H18        -8.7390    1.8710   -1.2870 h1        1 MOL      0.086759
     47 H19        -7.9920    1.7180    0.2830 h1        1 MOL      0.086759
     48 N5         -6.8440   -0.7890   -1.2840 n         1 MOL     -0.231803
     49 C16        -6.8670   -2.2860   -1.2830 c3        1 MOL     -0.115387
     50 C17        -6.4090   -2.9730    0.0290 c         1 MOL      0.431725
     51 O10        -6.1050   -4.1310    0.0000 o         1 MOL     -0.512771
     52 C18        -6.0350   -2.7950   -2.5390 c3        1 MOL     -0.123761
     53 C19        -4.5570   -2.7530   -2.4820 c         1 MOL      0.760681
     54 N6         -3.8300   -3.2730   -3.4240 n         1 MOL     -0.734009
     55 O11        -4.0200   -2.1530   -1.6190 o         1 MOL     -0.738822
     56 H20        -5.9190   -0.3770   -1.3000 hn        1 MOL      0.186305
     57 H21        -7.8910   -2.6440   -1.4380 h1        1 MOL      0.133540
     58 H22        -6.3370   -2.2180   -3.4150 hc        1 MOL      0.050848
     59 H23        -6.2540   -3.8370   -2.7540 hc        1 MOL      0.050848
     60 H24        -4.1910   -3.7220   -4.2510 hn        1 MOL      0.328474
     61 H25        -2.8220   -3.1850   -3.3270 hn        1 MOL      0.328474
     62 N7         -6.2890   -2.2310    1.1520 n         1 MOL     -0.241146
     63 C20        -6.0810   -2.6660    2.5190 c3        1 MOL     -0.115795
     64 C21        -4.8160   -3.5270    2.7050 c         1 MOL      0.536360
     65 O12        -4.6100   -4.0170    3.8270 o         1 MOL     -0.557280
     66 H26        -6.6320   -1.3030    0.9210 hn        1 MOL      0.261047
     67 H27        -6.9950   -3.1430    2.8620 h1        1 MOL      0.091962
     68 H28        -5.9640   -1.7160    3.0440 h1        1 MOL      0.091962
     69 N8         -3.8650   -3.6830    1.6680 n         1 MOL     -0.421373
     70 C22        -2.4800   -4.0530    1.7820 c3        1 MOL      0.146352
     71 C23        -1.5560   -2.8610    1.5770 c         1 MOL      0.661619
     72 O13        -1.9220   -2.0040    0.8060 o         1 MOL     -0.682249
     73 C24        -2.1590   -5.1760    0.7150 c3        1 MOL      0.286507
     74 C25        -2.7640   -6.5190    1.2060 c3        1 MOL     -0.374950
     75 O14        -2.6860   -4.7060   -0.5270 oh        1 MOL     -0.678397
     76 H29        -4.2630   -3.3830    0.7790 hn        1 MOL      0.309899
     77 H30        -2.2030   -4.4390    2.7670 h1        1 MOL      0.002468
     78 H31        -1.0740   -5.2590    0.7070 h1        1 MOL      0.017657
     79 H32        -3.0220   -5.4990   -0.9520 ho        1 MOL      0.432181
     80 H33        -2.6140   -6.5350    2.2860 hc        1 MOL      0.099129
     81 H34        -3.7950   -6.7230    0.9310 hc        1 MOL      0.099129
     82 H35        -2.1230   -7.3690    0.9750 hc        1 MOL      0.099129
     83 N9         -0.3280   -3.0360    2.0030 n         1 MOL     -0.460508
     84 C26         0.7490   -2.0850    1.7750 c3        1 MOL      0.049525
     85 C27         1.7810   -2.6920    0.8170 c         1 MOL      0.390861
     86 O15         2.4900   -3.6620    1.2150 o         1 MOL     -0.578809
     87 C28         1.2740   -1.4150    2.9800 c3        1 MOL      0.194847
     88 C29         2.2050   -2.1240    3.9180 c3        1 MOL     -0.242532
     89 C30         0.1490   -0.6770    3.7140 c3        1 MOL     -0.297707
     90 C31         2.6750   -1.3770    5.1850 c3        1 MOL     -0.166349
     91 H36        -0.0500   -3.8660    2.5140 hn        1 MOL      0.264548
     92 H37         0.2900   -1.3000    1.1660 h1        1 MOL      0.049008
     93 H38         1.9330   -0.6660    2.5420 hc        1 MOL     -0.080056
     94 H39         3.1490   -2.2770    3.3920 hc        1 MOL      0.080479
     95 H40         1.8740   -3.1270    4.1650 hc        1 MOL      0.080479
     96 H41        -0.5670   -1.3980    4.1150 hc        1 MOL      0.089211
     97 H42         0.5820   -0.0340    4.4760 hc        1 MOL      0.089211
     98 H43        -0.4660   -0.0550    3.0680 hc        1 MOL      0.089211
     99 H44         2.9560   -0.3540    4.9430 hc        1 MOL      0.046603
    100 H45         1.8770   -1.4620    5.9180 hc        1 MOL      0.046603
    101 H46         3.6170   -1.7420    5.5780 hc        1 MOL      0.046603
    102 N10         2.0120   -2.0210   -0.3230 n         1 MOL     -0.281758
    103 C32         3.1090   -2.2160   -1.3050 c3        1 MOL      0.121796
    104 C33         4.3890   -1.6040   -0.7000 c         1 MOL      0.343663
    105 O16         4.2960   -0.8700    0.3080 o         1 MOL     -0.342823
    106 C34         2.5540   -1.6330   -2.5920 c3        1 MOL     -0.173191
    107 C35         3.4700   -1.6960   -3.8310 c         1 MOL      0.701837
    108 O17         3.1760   -1.0070   -4.8580 o         1 MOL     -0.706624
    109 O18         4.4320   -2.4900   -3.7980 o         1 MOL     -0.706624
    110 H47         1.5240   -1.1400   -0.3780 hn        1 MOL      0.321763
    111 H48         3.3160   -3.2730   -1.4520 h1        1 MOL      0.056009
    112 H49         2.1540   -0.6210   -2.5080 hc        1 MOL      0.006133
    113 H50         1.7270   -2.3140   -2.8060 hc        1 MOL      0.006133
    114 N11         5.5680   -1.8110   -1.2360 n         1 MOL     -0.422192
    115 C36         6.8550   -1.3200   -0.7290 c3        1 MOL      0.260992
    116 C37         7.0470    0.1820   -0.6050 c         1 MOL      0.485281
    117 O19         7.5480    0.6030    0.4160 o         1 MOL     -0.513673
    118 C38         8.0070   -1.9360   -1.5830 c3        1 MOL     -0.059078
    119 C39         9.4070   -1.5660   -1.1630 ca        1 MOL      0.112360
    120 C40         9.8510   -1.9260    0.0540 ca        1 MOL     -0.199046
    121 C41        10.2020   -0.7100   -1.9310 ca        1 MOL     -0.199046
    122 C42        11.0700   -1.3850    0.6040 ca        1 MOL     -0.135014
    123 C43        11.4580   -0.1810   -1.4410 ca        1 MOL     -0.135014
    124 C44        11.8910   -0.5200   -0.1430 ca        1 MOL     -0.056657
    125 H51         5.6020   -2.5000   -1.9760 hn        1 MOL      0.251936
    126 H52         6.9420   -1.6840    0.2930 h1        1 MOL      0.009832
    127 H53         7.9290   -1.5430   -2.5990 hc        1 MOL      0.029524
    128 H54         7.9900   -3.0170   -1.5900 hc        1 MOL      0.029524
    129 H55         9.3160   -2.6220    0.6890 ha        1 MOL      0.123517
    130 H56         9.8230   -0.2770   -2.8360 ha        1 MOL      0.123517
    131 H57        11.3480   -1.5240    1.6370 ha        1 MOL      0.113382
    132 H58        12.0690    0.4910   -2.0160 ha        1 MOL      0.113382
    133 H59        12.8800   -0.2320    0.1680 ha        1 MOL      0.080666
    134 N12         6.6210    1.0530   -1.5890 n         1 MOL     -0.275455
    135 C45         6.5330    2.4700   -1.3140 c3        1 MOL      0.115807
    136 C46         5.5390    2.8980   -0.1650 c         1 MOL      0.257496
    137 O20         5.7440    3.9100    0.5100 o         1 MOL     -0.487691
    138 C47         6.2240    3.1780   -2.6600 c3        1 MOL     -0.271567
    139 C48         5.6450    2.0780   -3.5960 c3        1 MOL     -0.016152
    140 C49         6.3760    0.8080   -2.9990 c3        1 MOL      0.038927
    141 H60         7.4700    2.9400   -1.0140 h1        1 MOL      0.039932
    142 H61         5.7040    4.1080   -2.4350 hc        1 MOL      0.101337
    143 H62         7.2150    3.3100   -3.0860 hc        1 MOL      0.101337
    144 H63         4.5710    2.0700   -3.3760 hc        1 MOL      0.037784
    145 H64         5.9010    2.1210   -4.6510 hc        1 MOL      0.037784
    146 H65         5.7010   -0.0270   -3.1500 h1        1 MOL      0.035593
    147 H66         7.3110    0.6160   -3.5230 h1        1 MOL      0.035593
    148 N13         4.4320    2.1810    0.0310 n         1 MOL     -0.011394
    149 C50         3.6650    2.3910    1.2950 c3        1 MOL     -0.544599
    150 C51         4.2990    1.8600    2.6510 c         1 MOL      0.552769
    151 O21         4.2500    2.5220    3.7150 o         1 MOL     -0.591123
    152 C52         2.2440    1.8500    1.1270 c3        1 MOL      0.124789
    153 C53         1.4720    2.5230    0.0350 c3        1 MOL     -0.235360
    154 C54         0.2420    1.7490   -0.3530 c         1 MOL      0.780246
    155 O22         0.1970    0.5010   -0.2960 o         1 MOL     -0.800302
    156 O23        -0.7520    2.3780   -0.8140 o         1 MOL     -0.800302
    157 H67         4.2940    1.4490   -0.6360 hn        1 MOL      0.230719
    158 H68         3.6510    3.4710    1.4590 h1        1 MOL      0.204479
    159 H69         1.6700    1.9090    2.0520 hc        1 MOL      0.101040
    160 H70         2.3450    0.7830    0.9150 hc        1 MOL      0.101040
    161 H71         2.0710    2.6820   -0.8670 hc        1 MOL      0.070132
    162 H72         1.0730    3.4670    0.4120 hc        1 MOL      0.070132
    163 N14         5.0350    0.7850    2.6850 n         1 MOL      0.102598
    164 C55         5.8870    0.3040    3.7610 c3        1 MOL     -0.281685
    165 H73         6.8800    0.7440    3.6640 h1        1 MOL      0.090969
    166 H74         5.4560    0.5900    4.7210 h1        1 MOL      0.090969
    167 H75         5.9650   -0.7810    3.7050 h1        1 MOL      0.090969
    168 H76         5.0370    0.1160    1.9280 hn        1 MOL      0.033481
    169 Ca1        -2.1940   -0.1760   -1.4070 Ca        1 MOL      1.804752
    170 O24        -0.4520   -0.4090   -3.3320 oh        1 MOL     -0.860869
    171 H77         0.4330   -0.5730   -3.0000 ho        1 MOL      0.417461
    172 H78        -0.3360   -0.2840   -4.2760 ho        1 MOL      0.417461
    173 O25        -0.9900   -2.8490   -1.9090 oh        1 MOL     -0.860869
    174 H79        -1.5430   -3.5220   -1.5240 ho        1 MOL      0.417461
    175 H80        -0.4490   -3.3220   -2.5490 ho        1 MOL      0.417461
@<TRIPOS>BOND
     1    1    2 1   
     2    1    4 1   
     3    1    5 1   
     4    1    6 1   
     5    2    3 2   
     6    2    7 1   
     7    7    8 1   
     8    7   15 1   
     9    8    9 1   
    10    8   11 1   
    11    8   16 1   
    12    9   10 2   
    13    9   19 1   
    14   11   12 1   
    15   11   17 1   
    16   11   18 1   
    17   12   13 1   
    18   12   14 1   
    19   19   20 1   
    20   19   24 1   
    21   20   21 1   
    22   20   23 1   
    23   20   25 1   
    24   21   22 2   
    25   21   29 1   
    26   23   26 1   
    27   23   27 1   
    28   23   28 1   
    29   29   30 1   
    30   29   37 1   
    31   30   31 1   
    32   30   33 1   
    33   30   38 1   
    34   31   32 2   
    35   31   41 1   
    36   33   34 1   
    37   33   39 1   
    38   33   40 1   
    39   34   35 1   
    40   34   36 1   
    41   41   42 1   
    42   41   45 1   
    43   42   43 1   
    44   42   46 1   
    45   42   47 1   
    46   43   44 2   
    47   43   48 1   
    48   48   49 1   
    49   48   56 1   
    50   49   50 1   
    51   49   52 1   
    52   49   57 1   
    53   50   51 2   
    54   50   62 1   
    55   52   53 1   
    56   52   58 1   
    57   52   59 1   
    58   53   54 1   
    59   53   55 2   
    60   54   60 1   
    61   54   61 1   
    62   62   63 1   
    63   62   66 1   
    64   63   64 1   
    65   63   67 1   
    66   63   68 1   
    67   64   65 2   
    68   64   69 1   
    69   69   70 1   
    70   69   76 1   
    71   70   71 1   
    72   70   73 1   
    73   70   77 1   
    74   71   72 2   
    75   71   83 1   
    76   73   74 1   
    77   73   75 1   
    78   73   78 1   
    79   74   80 1   
    80   74   81 1   
    81   74   82 1   
    82   75   79 1   
    83   83   84 1   
    84   83   91 1   
    85   84   85 1   
    86   84   87 1   
    87   84   92 1   
    88   85   86 2   
    89   85  102 1   
    90   87   88 1   
    91   87   89 1   
    92   87   93 1   
    93   88   90 1   
    94   88   94 1   
    95   88   95 1   
    96   89   96 1   
    97   89   97 1   
    98   89   98 1   
    99   90   99 1   
   100   90  100 1   
   101   90  101 1   
   102  102  103 1   
   103  102  110 1   
   104  103  104 1   
   105  103  106 1   
   106  103  111 1   
   107  104  105 2   
   108  104  114 1   
   109  106  107 1   
   110  106  112 1   
   111  106  113 1   
   112  107  108 1   
   113  107  109 1   
   114  114  115 1   
   115  114  125 1   
   116  115  116 1   
   117  115  118 1   
   118  115  126 1   
   119  116  117 2   
   120  116  134 1   
   121  118  119 1   
   122  118  127 1   
   123  118  128 1   
   124  119  120 ar  
   125  119  121 ar  
   126  120  122 ar  
   127  120  129 1   
   128  121  123 ar  
   129  121  130 1   
   130  122  124 ar  
   131  122  131 1   
   132  123  124 ar  
   133  123  132 1   
   134  124  133 1   
   135  134  135 1   
   136  134  140 1   
   137  135  136 1   
   138  135  138 1   
   139  135  141 1   
   140  136  137 2   
   141  136  148 1   
   142  138  139 1   
   143  138  142 1   
   144  138  143 1   
   145  139  140 1   
   146  139  144 1   
   147  139  145 1   
   148  140  146 1   
   149  140  147 1   
   150  148  149 1   
   151  148  157 1   
   152  149  150 1   
   153  149  152 1   
   154  149  158 1   
   155  150  151 2   
   156  150  163 1   
   157  152  153 1   
   158  152  159 1   
   159  152  160 1   
   160  153  154 1   
   161  153  161 1   
   162  153  162 1   
   163  154  155 1   
   164  154  156 1   
   165  163  164 1   
   166  163  168 1   
   167  164  165 1   
   168  164  166 1   
   169  164  167 1   
   170  170  171 1   
   171  170  172 1   
   172  173  174 1   
   173  173  175 1   
@<TRIPOS>SUBSTRUCTURE
     1 MOL         1 TEMP              0 ****  ****    0 ROOT
