@<TRIPOS>MOLECULE
MOL
  189   185     1     0     0
SMALL
resp


@<TRIPOS>ATOM
      1 C1         -0.6980    1.2790    6.5260 c3        1 MOL     -0.457164
      2 C2         -0.5750    1.0160    5.0220 c         1 MOL      0.787818
      3 O1          0.5260    1.0180    4.3980 o         1 MOL     -0.623430
      4 H1          0.2580    1.6290    6.9120 hc        1 MOL      0.114213
      5 H2         -1.4610    2.0380    6.7010 hc        1 MOL      0.114213
      6 H3         -0.9790    0.3570    7.0340 hc        1 MOL      0.114213
      7 N1         -1.7250    0.9900    4.3810 n         1 MOL     -0.663048
      8 C3         -1.9130    1.1840    2.9650 c3        1 MOL     -0.009648
      9 C4         -2.0880    2.6740    2.6430 c         1 MOL      0.632700
     10 O2         -2.7350    3.4010    3.3740 o         1 MOL     -0.568097
     11 C5         -3.2240    0.4500    2.5980 c3        1 MOL     -0.049831
     12 C6         -3.7880    0.8180    1.1630 c         1 MOL      0.663863
     13 O3         -3.2830    0.2930    0.1310 o         1 MOL     -0.656807
     14 O4         -4.8060    1.5230    1.1220 o         1 MOL     -0.656807
     15 H4         -2.5380    1.0810    4.9760 hn        1 MOL      0.347328
     16 H5         -1.0980    0.6490    2.4700 h1        1 MOL      0.053513
     17 H6         -3.9920    0.7150    3.3240 hc        1 MOL      0.025488
     18 H7         -3.0310   -0.6240    2.6530 hc        1 MOL      0.025488
     19 N2         -1.5800    3.0910    1.4650 n         1 MOL     -0.392066
     20 C7         -1.5220    4.5400    1.0810 c3        1 MOL      0.044625
     21 C8         -2.4630    4.9140   -0.0930 c         1 MOL      0.641304
     22 O5         -2.5330    6.0960   -0.4240 o         1 MOL     -0.587074
     23 C9         -0.0700    4.8990    0.8010 c3        1 MOL     -0.106548
     24 C10         0.9720    4.5640    1.9380 c3        1 MOL      0.052578
     25 C11         0.4930    5.0110    3.3200 c3        1 MOL     -0.040209
     26 C12         1.5200    4.7240    4.4420 c3        1 MOL      0.142897
     27 N3          1.0670    5.2790    5.7310 n4        1 MOL     -0.459455
     28 H8         -1.1200    2.3840    0.9080 hn        1 MOL      0.319537
     29 H9         -1.8480    5.2060    1.8810 h1        1 MOL      0.030444
     30 H10        -0.0710    5.9170    0.4060 hc        1 MOL      0.030695
     31 H11         0.2210    4.2150    0.0040 hc        1 MOL      0.030695
     32 H12         1.8790    5.1740    1.8460 hc        1 MOL      0.005434
     33 H13         1.1620    3.4960    1.8510 hc        1 MOL      0.005434
     34 H14        -0.4100    4.4430    3.5790 hc        1 MOL      0.023185
     35 H15         0.3140    6.0890    3.3360 hc        1 MOL      0.023185
     36 H16         2.3950    5.2990    4.1640 hx        1 MOL      0.056831
     37 H17         1.7630    3.6660    4.5130 hx        1 MOL      0.056831
     38 H18         0.9230    6.2740    5.6440 hn        1 MOL      0.345185
     39 H19         0.1780    4.8490    5.9440 hn        1 MOL      0.345185
     40 H20         1.7330    4.9850    6.4310 hn        1 MOL      0.345185
     41 N4         -3.0990    3.9160   -0.6800 n         1 MOL     -0.561751
     42 C13        -3.7740    4.0950   -2.0510 c3        1 MOL      0.045198
     43 C14        -5.1900    3.4610   -2.1030 c         1 MOL      0.542132
     44 O6         -5.7830    3.4080   -3.1490 o         1 MOL     -0.544464
     45 C15        -2.9360    3.7550   -3.3440 c3        1 MOL     -0.131643
     46 C16        -2.1620    2.4230   -3.3870 c         1 MOL      0.812130
     47 O7         -1.9400    1.7560   -2.3420 o         1 MOL     -0.746302
     48 O8         -1.7730    2.1220   -4.5210 o         1 MOL     -0.746302
     49 H21        -2.7810    3.0120   -0.3760 hn        1 MOL      0.289307
     50 H22        -4.0310    5.1520   -2.1620 h1        1 MOL      0.077505
     51 H23        -2.1490    4.5040   -3.4580 hc        1 MOL      0.032187
     52 H24        -3.5430    3.7310   -4.2410 hc        1 MOL      0.032187
     53 N5         -5.7380    3.0070   -0.9610 n         1 MOL     -0.357411
     54 C17        -7.1750    2.6010   -0.7870 c3        1 MOL     -0.297430
     55 C18        -7.5040    1.2080   -1.2680 c         1 MOL      0.531006
     56 O9         -8.6760    0.8670   -1.1680 o         1 MOL     -0.563490
     57 H25        -5.0980    2.7250   -0.2320 hn        1 MOL      0.263708
     58 H26        -7.8220    3.2960   -1.3210 h1        1 MOL      0.159607
     59 H27        -7.4320    2.7030    0.2750 h1        1 MOL      0.159607
     60 N6         -6.5840    0.3190   -1.6460 n         1 MOL     -0.189562
     61 C19        -6.8260   -1.1430   -1.9090 c3        1 MOL     -0.084993
     62 C20        -7.0310   -1.9180   -0.5800 c         1 MOL      0.487754
     63 O10        -7.8680   -2.8070   -0.4580 o         1 MOL     -0.504050
     64 C21        -5.9120   -1.9260   -2.9230 c3        1 MOL     -0.123107
     65 C22        -4.4350   -1.6870   -2.5870 c         1 MOL      0.618957
     66 O11        -3.7340   -0.8470   -3.2730 o         1 MOL     -0.672581
     67 O12        -3.9600   -2.2800   -1.5770 o         1 MOL     -0.672581
     68 H28        -5.6220    0.6290   -1.7360 hn        1 MOL      0.186296
     69 H29        -7.8050   -1.1880   -2.3920 h1        1 MOL      0.101447
     70 H30        -6.0870   -1.6310   -3.9580 hc        1 MOL      0.062138
     71 H31        -6.1790   -2.9810   -2.8390 hc        1 MOL      0.062138
     72 N7         -6.2180   -1.4870    0.4580 n         1 MOL     -0.248160
     73 C23        -6.0850   -2.2980    1.6820 c3        1 MOL     -0.056946
     74 C24        -5.2390   -3.6090    1.6950 c         1 MOL      0.469098
     75 O13        -5.5990   -4.5450    2.3420 o         1 MOL     -0.527760
     76 H32        -5.4090   -0.9610    0.1570 hn        1 MOL      0.164892
     77 H33        -7.0710   -2.5830    2.0420 h1        1 MOL      0.059155
     78 H34        -5.6150   -1.6680    2.4350 h1        1 MOL      0.059155
     79 N8         -4.1850   -3.5700    0.8880 n         1 MOL     -0.143117
     80 C25        -3.0030   -4.4420    0.8830 c3        1 MOL     -0.171038
     81 C26        -1.6700   -3.6280    0.6760 c         1 MOL      0.653403
     82 O14        -1.6960   -2.6230    0.0420 o         1 MOL     -0.645238
     83 C27        -3.1330   -5.5620   -0.2170 c3        1 MOL      0.372310
     84 C28        -4.4570   -6.3490   -0.1340 c3        1 MOL     -0.510140
     85 O15        -3.1560   -4.9020   -1.4870 oh        1 MOL     -0.613533
     86 H35        -4.0880   -2.7430    0.3200 hn        1 MOL      0.157459
     87 H36        -2.8310   -4.9640    1.8220 h1        1 MOL      0.069277
     88 H37        -2.3190   -6.2790   -0.1180 h1        1 MOL      0.013903
     89 H38        -3.6130   -4.0760   -1.3660 ho        1 MOL      0.374749
     90 H39        -4.4520   -7.0750   -0.9590 hc        1 MOL      0.141534
     91 H40        -4.5580   -6.7960    0.8540 hc        1 MOL      0.141534
     92 H41        -5.3420   -5.7470   -0.3190 hc        1 MOL      0.141534
     93 N9         -0.5570   -4.0820    1.2510 n         1 MOL     -0.574841
     94 C29         0.6810   -3.3020    1.4430 c3        1 MOL     -0.013721
     95 C30         1.7630   -3.8490    0.5390 c         1 MOL      0.472068
     96 O16         2.1610   -5.0280    0.6200 o         1 MOL     -0.558997
     97 C31         1.1260   -3.4300    2.9560 c3        1 MOL      0.050198
     98 C32         0.0450   -2.6700    3.7150 c3        1 MOL      0.052196
     99 C33         2.4840   -2.8350    3.1650 c3        1 MOL     -0.063540
    100 C34         0.3160   -2.6410    5.2140 c3        1 MOL     -0.212291
    101 H42        -0.4470   -5.0390    1.5660 hn        1 MOL      0.313781
    102 H43         0.5370   -2.2400    1.2280 h1        1 MOL      0.182863
    103 H44         1.1390   -4.4570    3.3110 hc        1 MOL      0.026268
    104 H45        -0.9550   -3.0590    3.5430 hc        1 MOL      0.025713
    105 H46         0.0060   -1.6280    3.4190 hc        1 MOL      0.025713
    106 H47         2.7870   -3.0510    4.1980 hc        1 MOL      0.013566
    107 H48         3.2050   -3.4170    2.5870 hc        1 MOL      0.013566
    108 H49         2.4720   -1.8050    2.8290 hc        1 MOL      0.013566
    109 H50         0.4600   -3.6240    5.6520 hc        1 MOL      0.047929
    110 H51         1.1420   -1.9710    5.4800 hc        1 MOL      0.047929
    111 H52        -0.5510   -2.3180    5.7950 hc        1 MOL      0.047929
    112 N10         2.3300   -2.9920   -0.2960 n         1 MOL     -0.123748
    113 C35         3.5580   -3.2060   -1.1500 c3        1 MOL     -0.033968
    114 C36         4.7960   -2.6300   -0.4820 c         1 MOL      0.164867
    115 O17         4.7580   -1.8400    0.4880 o         1 MOL     -0.168949
    116 C37         3.4200   -2.5130   -2.5020 c3        1 MOL      0.204710
    117 C38         2.4050   -3.0940   -3.5070 c3        1 MOL     -0.065340
    118 O18         3.1910   -1.1150   -2.3090 oh        1 MOL     -0.626813
    119 H53         2.0580   -2.0210   -0.1650 hn        1 MOL      0.069996
    120 H54         3.5640   -4.2700   -1.3740 h1        1 MOL      0.070739
    121 H55         4.3880   -2.6250   -2.9880 h1        1 MOL      0.028081
    122 H56         2.2830   -1.1220   -1.9720 ho        1 MOL      0.369142
    123 H57         2.1480   -2.3120   -4.2320 hc        1 MOL      0.025241
    124 H58         2.8720   -3.9200   -4.0320 hc        1 MOL      0.025241
    125 H59         1.4900   -3.3360   -2.9730 hc        1 MOL      0.025241
    126 N11         5.9430   -2.9090   -1.0960 n         1 MOL     -0.094470
    127 C39         7.2650   -2.4470   -0.5380 c3        1 MOL     -0.484657
    128 C40         7.2860   -0.9360   -0.4350 c         1 MOL      0.661802
    129 O19         7.6730   -0.4470    0.6070 o         1 MOL     -0.494040
    130 C41         8.4040   -3.0450   -1.3470 c3        1 MOL      0.368568
    131 C42         8.4550   -4.5810   -1.2880 c3        1 MOL     -0.358610
    132 O20         8.3140   -2.7250   -2.6990 oh        1 MOL     -0.630843
    133 H60         5.9060   -3.5290   -1.8910 hn        1 MOL      0.249898
    134 H61         7.2990   -2.9610    0.4240 h1        1 MOL      0.213066
    135 H62         9.3670   -2.6290   -1.0470 h1        1 MOL      0.036230
    136 H63         9.2200   -2.8170   -2.9950 ho        1 MOL      0.414950
    137 H64         8.6490   -4.9370   -0.2770 hc        1 MOL      0.101469
    138 H65         7.5240   -5.0410   -1.6250 hc        1 MOL      0.101469
    139 H66         9.2550   -4.8140   -1.9780 hc        1 MOL      0.101469
    140 N12         6.8870   -0.2210   -1.5310 n         1 MOL     -0.504322
    141 C43         6.8000    1.2530   -1.4510 c3        1 MOL      0.085442
    142 C44         6.1590    1.7740   -0.1840 c         1 MOL      0.216402
    143 O21         6.5230    2.7050    0.5080 o         1 MOL     -0.496042
    144 C45         6.0240    1.7980   -2.6990 c3        1 MOL     -0.155007
    145 C46         6.0550    3.2880   -2.8660 c3        1 MOL      0.010439
    146 C47         5.3400    3.7690   -4.0580 c3        1 MOL      0.061521
    147 C48         4.8610    5.2190   -3.9550 c3        1 MOL      0.152759
    148 N13         4.0010    5.5690   -5.1190 n4        1 MOL     -0.544482
    149 H67         6.6760   -0.7330   -2.3640 hn        1 MOL      0.310332
    150 H68         7.7960    1.6990   -1.3760 h1        1 MOL      0.074219
    151 H69         4.9920    1.5030   -2.5380 hc        1 MOL      0.067415
    152 H70         6.4590    1.3410   -3.5860 hc        1 MOL      0.067415
    153 H71         7.0740    3.6600   -2.9750 hc        1 MOL      0.023905
    154 H72         5.7010    3.7460   -1.9510 hc        1 MOL      0.023905
    155 H73         4.4630    3.1770   -4.3010 hc        1 MOL     -0.005312
    156 H74         6.0000    3.7510   -4.9290 hc        1 MOL     -0.005312
    157 H75         5.7700    5.7950   -3.8220 hx        1 MOL      0.057244
    158 H76         4.3360    5.2930   -3.0030 hx        1 MOL      0.057244
    159 H77         3.2080    4.9410   -5.1290 hn        1 MOL      0.378663
    160 H78         3.4560    6.4170   -5.1080 hn        1 MOL      0.378663
    161 H79         4.5660    5.4580   -5.9570 hn        1 MOL      0.378663
    162 N14         5.1050    1.1250    0.1980 n         1 MOL      0.223635
    163 C49         4.2000    1.4070    1.2680 c3        1 MOL     -0.253935
    164 C50         4.8350    1.0270    2.5420 c         1 MOL      0.545444
    165 O22         4.8530    1.8760    3.4530 o         1 MOL     -0.613345
    166 C51         2.8800    0.7660    0.9720 c3        1 MOL     -0.098525
    167 C52         2.1000    1.3260   -0.2270 c3        1 MOL      0.026211
    168 C53         0.8430    0.5320   -0.4680 c         1 MOL      0.712538
    169 O23         0.8950   -0.5610   -1.1220 o         1 MOL     -0.775000
    170 O24        -0.2710    0.8670   -0.0430 o         1 MOL     -0.775000
    171 H80         4.7510    0.3690   -0.3720 hn        1 MOL      0.140029
    172 H81         4.0830    2.4920    1.2610 h1        1 MOL      0.063449
    173 H82         2.1640    0.8410    1.7980 hc        1 MOL      0.088118
    174 H83         3.1030   -0.2890    0.8220 hc        1 MOL      0.088118
    175 H84         2.8460    1.3500   -1.0250 hc        1 MOL     -0.019124
    176 H85         1.9270    2.3980   -0.1810 hc        1 MOL     -0.019124
    177 N15         5.3250   -0.1620    2.7110 n         1 MOL     -0.057998
    178 C54         5.8890   -0.8450    3.9400 c3        1 MOL     -0.295798
    179 H86         5.2960   -0.5710    4.8120 h1        1 MOL      0.119980
    180 H87         5.8560   -1.9260    3.8030 h1        1 MOL      0.119980
    181 H88         6.9220   -0.5290    4.0910 h1        1 MOL      0.119980
    182 H89         5.2510   -0.7580    1.8940 hn        1 MOL     -0.029771
    183 Ca1        -1.6740   -0.6520   -1.6700 Ca        1 MOL      1.793310
    184 O25        -1.2650   -3.1300   -3.0860 oh        1 MOL     -0.824008
    185 H90        -1.1500   -3.8050   -3.7590 ho        1 MOL      0.393216
    186 H91        -1.6910   -3.5820   -2.3600 ho        1 MOL      0.393216
    187 O26        -0.6470   -0.2180   -4.2320 oh        1 MOL     -0.824008
    188 H92        -0.8000    0.6680   -4.5680 ho        1 MOL      0.393216
    189 H93        -0.6040   -0.7710   -5.0070 ho        1 MOL      0.393216
@<TRIPOS>BOND
     1    1    2 1   
     2    1    4 1   
     3    1    5 1   
     4    1    6 1   
     5    2    3 2   
     6    2    7 1   
     7    7    8 1   
     8    7   15 1   
     9    8    9 1   
    10    8   11 1   
    11    8   16 1   
    12    9   10 2   
    13    9   19 1   
    14   11   12 1   
    15   11   17 1   
    16   11   18 1   
    17   12   13 1   
    18   12   14 1   
    19   19   20 1   
    20   19   28 1   
    21   20   21 1   
    22   20   23 1   
    23   20   29 1   
    24   21   22 2   
    25   21   41 1   
    26   23   24 1   
    27   23   30 1   
    28   23   31 1   
    29   24   25 1   
    30   24   32 1   
    31   24   33 1   
    32   25   26 1   
    33   25   34 1   
    34   25   35 1   
    35   26   27 1   
    36   26   36 1   
    37   26   37 1   
    38   27   38 1   
    39   27   39 1   
    40   27   40 1   
    41   41   42 1   
    42   41   49 1   
    43   42   43 1   
    44   42   45 1   
    45   42   50 1   
    46   43   44 2   
    47   43   53 1   
    48   45   46 1   
    49   45   51 1   
    50   45   52 1   
    51   46   47 1   
    52   46   48 1   
    53   53   54 1   
    54   53   57 1   
    55   54   55 1   
    56   54   58 1   
    57   54   59 1   
    58   55   56 2   
    59   55   60 1   
    60   60   61 1   
    61   60   68 1   
    62   61   62 1   
    63   61   64 1   
    64   61   69 1   
    65   62   63 2   
    66   62   72 1   
    67   64   65 1   
    68   64   70 1   
    69   64   71 1   
    70   65   66 1   
    71   65   67 1   
    72   72   73 1   
    73   72   76 1   
    74   73   74 1   
    75   73   77 1   
    76   73   78 1   
    77   74   75 2   
    78   74   79 1   
    79   79   80 1   
    80   79   86 1   
    81   80   81 1   
    82   80   83 1   
    83   80   87 1   
    84   81   82 2   
    85   81   93 1   
    86   83   84 1   
    87   83   85 1   
    88   83   88 1   
    89   84   90 1   
    90   84   91 1   
    91   84   92 1   
    92   85   89 1   
    93   93   94 1   
    94   93  101 1   
    95   94   95 1   
    96   94   97 1   
    97   94  102 1   
    98   95   96 2   
    99   95  112 1   
   100   97   98 1   
   101   97   99 1   
   102   97  103 1   
   103   98  100 1   
   104   98  104 1   
   105   98  105 1   
   106   99  106 1   
   107   99  107 1   
   108   99  108 1   
   109  100  109 1   
   110  100  110 1   
   111  100  111 1   
   112  112  113 1   
   113  112  119 1   
   114  113  114 1   
   115  113  116 1   
   116  113  120 1   
   117  114  115 2   
   118  114  126 1   
   119  116  117 1   
   120  116  118 1   
   121  116  121 1   
   122  117  123 1   
   123  117  124 1   
   124  117  125 1   
   125  118  122 1   
   126  126  127 1   
   127  126  133 1   
   128  127  128 1   
   129  127  130 1   
   130  127  134 1   
   131  128  129 2   
   132  128  140 1   
   133  130  131 1   
   134  130  132 1   
   135  130  135 1   
   136  131  137 1   
   137  131  138 1   
   138  131  139 1   
   139  132  136 1   
   140  140  141 1   
   141  140  149 1   
   142  141  142 1   
   143  141  144 1   
   144  141  150 1   
   145  142  143 2   
   146  142  162 1   
   147  144  145 1   
   148  144  151 1   
   149  144  152 1   
   150  145  146 1   
   151  145  153 1   
   152  145  154 1   
   153  146  147 1   
   154  146  155 1   
   155  146  156 1   
   156  147  148 1   
   157  147  157 1   
   158  147  158 1   
   159  148  159 1   
   160  148  160 1   
   161  148  161 1   
   162  162  163 1   
   163  162  171 1   
   164  163  164 1   
   165  163  166 1   
   166  163  172 1   
   167  164  165 2   
   168  164  177 1   
   169  166  167 1   
   170  166  173 1   
   171  166  174 1   
   172  167  168 1   
   173  167  175 1   
   174  167  176 1   
   175  168  169 1   
   176  168  170 1   
   177  177  178 1   
   178  177  182 1   
   179  178  179 1   
   180  178  180 1   
   181  178  181 1   
   182  184  185 1   
   183  184  186 1   
   184  187  188 1   
   185  187  189 1   
@<TRIPOS>SUBSTRUCTURE
     1 MOL         1 TEMP              0 ****  ****    0 ROOT
