@<TRIPOS>MOLECULE
MOL
  179   176     1     0     0
SMALL
resp


@<TRIPOS>ATOM
      1 C1          1.2920    3.2520    7.0730 c3        1 MOL     -0.323099
      2 C2          1.3520    2.8470    5.6090 c         1 MOL      0.757883
      3 O1          2.3950    2.4350    5.1330 o         1 MOL     -0.592226
      4 H1          0.7010    2.5230    7.6280 hc        1 MOL      0.082873
      5 H2          2.3010    3.2880    7.4830 hc        1 MOL      0.082873
      6 H3          0.8290    4.2350    7.1600 hc        1 MOL      0.082873
      7 N1          0.2570    2.8570    4.8670 n         1 MOL     -0.641503
      8 C3          0.2720    2.5120    3.4170 c3        1 MOL      0.140383
      9 C4          0.5240    3.6970    2.5920 c         1 MOL      0.587087
     10 O2          0.1510    4.8000    3.0550 o         1 MOL     -0.563223
     11 C5         -1.0990    1.8620    2.9760 c3        1 MOL     -0.285009
     12 C6         -1.2060    1.5530    1.5310 c         1 MOL      0.623429
     13 O3         -2.3350    1.5300    0.9610 o         1 MOL     -0.718933
     14 O4         -0.1940    1.2450    0.8620 o         1 MOL     -0.718933
     15 H4         -0.6180    3.1470    5.2890 hn        1 MOL      0.318136
     16 H5          1.0800    1.8150    3.2130 h1        1 MOL      0.087079
     17 H6         -1.9140    2.5470    3.1830 hc        1 MOL      0.111422
     18 H7         -1.2960    0.9610    3.5610 hc        1 MOL      0.111422
     19 N2          0.9670    3.5740    1.3740 n         1 MOL     -0.407351
     20 C7          1.2790    4.7570    0.5750 c3        1 MOL     -0.065361
     21 C8          0.0830    5.4830   -0.0540 c         1 MOL      0.472594
     22 O5          0.1390    6.7380   -0.1550 o         1 MOL     -0.583513
     23 C9          2.2930    4.2900   -0.4920 c3        1 MOL      0.198838
     24 C10         2.8270    5.3790   -1.3830 c3        1 MOL      0.060555
     25 C11         3.9670    5.0860   -2.3260 c3        1 MOL      0.017768
     26 C12         4.5270    6.3760   -2.9980 c3        1 MOL     -0.021991
     27 N3          3.3240    7.1140   -3.6580 n4        1 MOL     -0.384499
     28 H8          1.0640    2.6520    0.9660 hn        1 MOL      0.189249
     29 H9          1.8010    5.4670    1.2160 h1        1 MOL      0.113872
     30 H10         1.8530    3.5640   -1.1850 hc        1 MOL     -0.023383
     31 H11         3.1090    3.7800    0.0220 hc        1 MOL     -0.023383
     32 H12         3.0260    6.1880   -0.6890 hc        1 MOL     -0.046226
     33 H13         1.9840    5.6820   -2.0030 hc        1 MOL     -0.046226
     34 H14         3.7110    4.3100   -3.0460 hc        1 MOL      0.033142
     35 H15         4.8040    4.6660   -1.7630 hc        1 MOL      0.033142
     36 H16         5.2950    6.0620   -3.7030 hx        1 MOL      0.103537
     37 H17         4.9990    6.9850   -2.2360 hx        1 MOL      0.103537
     38 H18         2.6380    7.2340   -2.9230 hn        1 MOL      0.334590
     39 H19         3.5670    8.0590   -3.9080 hn        1 MOL      0.334590
     40 H20         2.9160    6.4970   -4.3400 hn        1 MOL      0.334590
     41 N4         -0.9500    4.7580   -0.4100 n         1 MOL     -0.320586
     42 C13        -2.0650    5.3020   -1.1650 c3        1 MOL      0.010063
     43 C14        -3.4420    4.9200   -0.6110 c         1 MOL      0.507327
     44 O6         -4.4530    5.2970   -1.2010 o         1 MOL     -0.541237
     45 C15        -1.8430    4.9790   -2.6720 c3        1 MOL     -0.258054
     46 C16        -1.8330    3.4770   -2.9830 c         1 MOL      0.814235
     47 O7         -1.9200    2.7100   -2.0210 o         1 MOL     -0.726334
     48 O8         -1.7710    3.0270   -4.1360 o         1 MOL     -0.726334
     49 H21        -0.8990    3.7570   -0.3410 hn        1 MOL      0.294933
     50 H22        -2.0610    6.3900   -1.0450 h1        1 MOL      0.114864
     51 H23        -0.8300    5.2990   -2.9040 hc        1 MOL      0.055655
     52 H24        -2.5760    5.5010   -3.2930 hc        1 MOL      0.055655
     53 N5         -3.5210    4.3110    0.5540 n         1 MOL     -0.247124
     54 C17        -4.7400    4.1060    1.3270 c3        1 MOL     -0.204629
     55 C18        -5.7160    3.0210    0.7620 c         1 MOL      0.600682
     56 O9         -6.8390    2.9190    1.2460 o         1 MOL     -0.577298
     57 H25        -2.7280    3.9140    1.0390 hn        1 MOL      0.214797
     58 H26        -5.2340    5.0760    1.3200 h1        1 MOL      0.111142
     59 H27        -4.5820    3.7160    2.3270 h1        1 MOL      0.111142
     60 N6         -5.2430    2.2020   -0.2310 n         1 MOL     -0.266738
     61 C19        -6.1170    1.3620   -1.0600 c3        1 MOL     -0.082486
     62 C20        -6.7010    0.1150   -0.3630 c         1 MOL      0.457585
     63 O10        -7.4800   -0.5640   -1.0200 o         1 MOL     -0.510682
     64 C21        -5.4060    1.0840   -2.3820 c3        1 MOL     -0.343344
     65 C22        -4.5570   -0.1680   -2.3280 c         1 MOL      0.665357
     66 N7         -4.5930   -1.0260   -3.3040 n         1 MOL     -0.731338
     67 O11        -3.9130   -0.4550   -1.3290 o         1 MOL     -0.486039
     68 H28        -4.2360    2.0850   -0.2310 hn        1 MOL      0.107204
     69 H29        -6.9740    2.0410   -1.1560 h1        1 MOL      0.153304
     70 H30        -4.7830    1.9220   -2.6910 hc        1 MOL      0.150195
     71 H31        -6.2200    1.0580   -3.1090 hc        1 MOL      0.150195
     72 H32        -5.1930   -0.8820   -4.1070 hn        1 MOL      0.352403
     73 H33        -4.0480   -1.8730   -3.2170 hn        1 MOL      0.352403
     74 N8         -6.3790   -0.0660    0.9330 n         1 MOL     -0.279425
     75 C23        -6.6870   -1.3160    1.7720 c3        1 MOL     -0.250609
     76 C24        -5.6170   -2.4210    1.8460 c         1 MOL      0.558861
     77 O12        -5.8500   -3.3630    2.5940 o         1 MOL     -0.566734
     78 H34        -5.8010    0.6420    1.3790 hn        1 MOL      0.308126
     79 H35        -7.5750   -1.7830    1.3440 h1        1 MOL      0.142524
     80 H36        -6.8810   -0.8680    2.7450 h1        1 MOL      0.142524
     81 N9         -4.5810   -2.3320    1.1030 n         1 MOL     -0.303194
     82 C25        -3.4820   -3.3000    0.8450 c3        1 MOL      0.274949
     83 C26        -2.0900   -2.6490    0.8080 c         1 MOL      0.167380
     84 O13        -2.0590   -1.5100    0.4690 o         1 MOL     -0.387404
     85 C27        -3.7410   -4.0570   -0.4410 c3        1 MOL      0.025137
     86 C28        -5.0400   -4.7380   -0.5630 ca        1 MOL      0.168730
     87 C29        -5.0740   -6.1690   -0.6370 ca        1 MOL     -0.345069
     88 C30        -6.2000   -3.9840   -0.6960 ca        1 MOL     -0.345069
     89 C31        -6.2970   -6.8370   -0.5940 ca        1 MOL      0.003541
     90 C32        -7.4550   -4.6590   -0.7940 ca        1 MOL      0.003541
     91 C33        -7.4480   -6.0960   -0.7660 ca        1 MOL      0.076254
     92 O14        -8.5960   -6.8240   -0.4840 oh        1 MOL     -0.479451
     93 H37        -4.6600   -1.4750    0.5620 hn        1 MOL      0.079179
     94 H38        -3.5160   -4.0970    1.5890 h1        1 MOL      0.020103
     95 H39        -2.8810   -4.7360   -0.4810 hc        1 MOL     -0.026467
     96 H40        -3.5380   -3.3410   -1.2390 hc        1 MOL     -0.026467
     97 H41        -4.1610   -6.7230   -0.5410 ha        1 MOL      0.162080
     98 H42        -6.1880   -2.9090   -0.6150 ha        1 MOL      0.162080
     99 H43        -6.2770   -7.9080   -0.5130 ha        1 MOL      0.106600
    100 H44        -8.3500   -4.0590   -0.8970 ha        1 MOL      0.106600
    101 H45        -9.3830   -6.2840   -0.3740 ho        1 MOL      0.380409
    102 N10        -1.0120   -3.2860    1.2200 n         1 MOL     -0.241938
    103 C34         0.3790   -2.7610    1.1340 c3        1 MOL      0.045172
    104 C35         1.3100   -3.7890    0.6100 c         1 MOL      0.380575
    105 O15         1.2680   -4.9720    1.0190 o         1 MOL     -0.505811
    106 C36         0.6470   -2.1070    2.5680 c3        1 MOL      0.068393
    107 C37         2.0700   -1.4640    2.6380 c3        1 MOL      0.115000
    108 C38         0.3020   -3.0650    3.7610 c3        1 MOL     -0.236104
    109 C39         2.5630   -0.9080    3.9340 c3        1 MOL     -0.351647
    110 H46        -1.2200   -4.2140    1.5540 hn        1 MOL      0.251025
    111 H47         0.4920   -1.8730    0.5100 h1        1 MOL      0.066426
    112 H48        -0.0600   -1.2810    2.6040 hc        1 MOL      0.065481
    113 H49         2.1470   -0.6330    1.9300 hc        1 MOL     -0.023722
    114 H50         2.8200   -2.1190    2.1960 hc        1 MOL     -0.023722
    115 H51         0.4610   -2.6270    4.7490 hc        1 MOL      0.054612
    116 H52        -0.7430   -3.3830    3.7850 hc        1 MOL      0.054612
    117 H53         0.8940   -3.9600    3.6110 hc        1 MOL      0.054612
    118 H54         2.9910   -1.7350    4.5040 hc        1 MOL      0.086170
    119 H55         3.3110   -0.1250    3.8300 hc        1 MOL      0.086170
    120 H56         1.7830   -0.3900    4.4970 hc        1 MOL      0.086170
    121 N11         2.1420   -3.2870   -0.3620 n         1 MOL     -0.306851
    122 C40         3.1680   -4.0590   -1.0120 c3        1 MOL      0.138068
    123 C41         4.5420   -3.9330   -0.3020 c         1 MOL      0.436209
    124 O16         4.6660   -3.1710    0.6830 o         1 MOL     -0.392626
    125 C42         3.3670   -3.6630   -2.4560 c3        1 MOL     -0.276088
    126 O17         4.2190   -2.5560   -2.6550 oh        1 MOL     -0.430332
    127 H57         1.9460   -2.3380   -0.6400 hn        1 MOL      0.312738
    128 H58         2.8300   -5.0820   -0.8630 h1        1 MOL      0.048995
    129 H59         2.4410   -3.4140   -2.9710 h1        1 MOL      0.120764
    130 H60         3.7140   -4.5990   -2.9000 h1        1 MOL      0.120764
    131 H61         3.9850   -2.2520   -3.5320 ho        1 MOL      0.402683
    132 N12         5.4640   -4.7540   -0.7690 n         1 MOL     -0.426068
    133 C43         6.8080   -4.8530   -0.1090 c3        1 MOL      0.143091
    134 C44         7.6270   -3.5970   -0.3850 c         1 MOL      0.410189
    135 O18         8.3580   -3.0820    0.4790 o         1 MOL     -0.492878
    136 C45         7.5570   -6.0890   -0.6070 c3        1 MOL     -0.275930
    137 H62         5.2410   -5.4430   -1.4670 hn        1 MOL      0.300152
    138 H63         6.6690   -4.9460    0.9720 h1        1 MOL      0.083863
    139 H64         7.0450   -7.0460   -0.4470 hc        1 MOL      0.088062
    140 H65         7.7220   -5.8610   -1.6500 hc        1 MOL      0.088062
    141 H66         8.4790   -6.1920   -0.0400 hc        1 MOL      0.088062
    142 N13         7.3420   -2.9310   -1.5580 n         1 MOL     -0.352475
    143 C46         7.8970   -1.5640   -1.9120 c3        1 MOL      0.105242
    144 C47         7.1450   -0.4620   -1.0710 c         1 MOL      0.355476
    145 O19         7.8730    0.4180   -0.5930 o         1 MOL     -0.511808
    146 C48         7.8930   -1.3260   -3.4180 c3        1 MOL     -0.271085
    147 H67         6.6150   -3.3220   -2.1290 hn        1 MOL      0.237196
    148 H68         8.9100   -1.4470   -1.5260 h1        1 MOL      0.104471
    149 H69         8.0600   -0.2960   -3.7280 hc        1 MOL      0.075460
    150 H70         8.6230   -1.9920   -3.8840 hc        1 MOL      0.075460
    151 H71         6.9580   -1.6120   -3.8830 hc        1 MOL      0.075460
    152 N14         5.8560   -0.4960   -0.9380 n         1 MOL     -0.029604
    153 C49         5.1520    0.4880   -0.1370 c3        1 MOL     -0.227621
    154 C50         5.5840    0.4120    1.3770 c         1 MOL      0.434739
    155 O20         5.7340    1.4160    2.0120 o         1 MOL     -0.532521
    156 C51         3.6150    0.2330   -0.3360 c3        1 MOL     -0.029290
    157 C52         3.1850    0.4670   -1.8000 c3        1 MOL     -0.055081
    158 C53         1.6660    0.2890   -1.8700 c         1 MOL      0.646670
    159 O21         0.9070    1.2840   -1.9360 o         1 MOL     -0.721288
    160 O22         1.0780   -0.7800   -1.6230 o         1 MOL     -0.721288
    161 H72         5.3330   -1.3040   -1.2580 hn        1 MOL     -0.002581
    162 H73         5.3420    1.5000   -0.5040 h1        1 MOL      0.119495
    163 H74         3.0960    0.9600    0.2950 hc        1 MOL      0.104147
    164 H75         3.3800   -0.7820   -0.0150 hc        1 MOL      0.104147
    165 H76         3.6620   -0.1820   -2.5420 hc        1 MOL     -0.007546
    166 H77         3.4480    1.4760   -2.1130 hc        1 MOL     -0.007546
    167 N15         5.7360   -0.8090    1.8330 n         1 MOL      0.116312
    168 C54         6.3520   -1.0840    3.1360 c3        1 MOL     -0.219120
    169 H78         5.7030   -1.7450    3.7120 h1        1 MOL      0.081921
    170 H79         7.3190   -1.5630    2.9880 h1        1 MOL      0.081921
    171 H80         6.4890   -0.1480    3.6780 h1        1 MOL      0.081921
    172 H81         5.3660   -1.5850    1.3040 hn        1 MOL      0.033416
    173 Ca1        -1.3090    0.3390   -1.1450 Ca        1 MOL      1.738198
    174 O23        -1.2300   -2.2700   -2.1930 oh        1 MOL     -0.857931
    175 H82        -0.6070   -2.9140   -2.5370 ho        1 MOL      0.403602
    176 H83        -2.0800   -2.5340   -2.5420 ho        1 MOL      0.403602
    177 O24        -2.0230    0.3420   -3.6390 oh        1 MOL     -0.857931
    178 H84        -2.2280    1.1420   -4.1190 ho        1 MOL      0.403602
    179 H85        -1.4220   -0.1300   -4.2110 ho        1 MOL      0.403602
@<TRIPOS>BOND
     1    1    2 1   
     2    1    4 1   
     3    1    5 1   
     4    1    6 1   
     5    2    3 2   
     6    2    7 1   
     7    7    8 1   
     8    7   15 1   
     9    8    9 1   
    10    8   11 1   
    11    8   16 1   
    12    9   10 2   
    13    9   19 1   
    14   11   12 1   
    15   11   17 1   
    16   11   18 1   
    17   12   13 1   
    18   12   14 1   
    19   19   20 1   
    20   19   28 1   
    21   20   21 1   
    22   20   23 1   
    23   20   29 1   
    24   21   22 2   
    25   21   41 1   
    26   23   24 1   
    27   23   30 1   
    28   23   31 1   
    29   24   25 1   
    30   24   32 1   
    31   24   33 1   
    32   25   26 1   
    33   25   34 1   
    34   25   35 1   
    35   26   27 1   
    36   26   36 1   
    37   26   37 1   
    38   27   38 1   
    39   27   39 1   
    40   27   40 1   
    41   41   42 1   
    42   41   49 1   
    43   42   43 1   
    44   42   45 1   
    45   42   50 1   
    46   43   44 2   
    47   43   53 1   
    48   45   46 1   
    49   45   51 1   
    50   45   52 1   
    51   46   47 1   
    52   46   48 1   
    53   53   54 1   
    54   53   57 1   
    55   54   55 1   
    56   54   58 1   
    57   54   59 1   
    58   55   56 2   
    59   55   60 1   
    60   60   61 1   
    61   60   68 1   
    62   61   62 1   
    63   61   64 1   
    64   61   69 1   
    65   62   63 2   
    66   62   74 1   
    67   64   65 1   
    68   64   70 1   
    69   64   71 1   
    70   65   66 1   
    71   65   67 2   
    72   66   72 1   
    73   66   73 1   
    74   74   75 1   
    75   74   78 1   
    76   75   76 1   
    77   75   79 1   
    78   75   80 1   
    79   76   77 2   
    80   76   81 1   
    81   81   82 1   
    82   81   93 1   
    83   82   83 1   
    84   82   85 1   
    85   82   94 1   
    86   83   84 2   
    87   83  102 1   
    88   85   86 1   
    89   85   95 1   
    90   85   96 1   
    91   86   87 ar  
    92   86   88 ar  
    93   87   89 ar  
    94   87   97 1   
    95   88   90 ar  
    96   88   98 1   
    97   89   91 ar  
    98   89   99 1   
    99   90   91 ar  
   100   90  100 1   
   101   91   92 1   
   102   92  101 1   
   103  102  103 1   
   104  102  110 1   
   105  103  104 1   
   106  103  106 1   
   107  103  111 1   
   108  104  105 2   
   109  104  121 1   
   110  106  107 1   
   111  106  108 1   
   112  106  112 1   
   113  107  109 1   
   114  107  113 1   
   115  107  114 1   
   116  108  115 1   
   117  108  116 1   
   118  108  117 1   
   119  109  118 1   
   120  109  119 1   
   121  109  120 1   
   122  121  122 1   
   123  121  127 1   
   124  122  123 1   
   125  122  125 1   
   126  122  128 1   
   127  123  124 2   
   128  123  132 1   
   129  125  126 1   
   130  125  129 1   
   131  125  130 1   
   132  126  131 1   
   133  132  133 1   
   134  132  137 1   
   135  133  134 1   
   136  133  136 1   
   137  133  138 1   
   138  134  135 2   
   139  134  142 1   
   140  136  139 1   
   141  136  140 1   
   142  136  141 1   
   143  142  143 1   
   144  142  147 1   
   145  143  144 1   
   146  143  146 1   
   147  143  148 1   
   148  144  145 2   
   149  144  152 1   
   150  146  149 1   
   151  146  150 1   
   152  146  151 1   
   153  152  153 1   
   154  152  161 1   
   155  153  154 1   
   156  153  156 1   
   157  153  162 1   
   158  154  155 2   
   159  154  167 1   
   160  156  157 1   
   161  156  163 1   
   162  156  164 1   
   163  157  158 1   
   164  157  165 1   
   165  157  166 1   
   166  158  159 1   
   167  158  160 1   
   168  167  168 1   
   169  167  172 1   
   170  168  169 1   
   171  168  170 1   
   172  168  171 1   
   173  174  175 1   
   174  174  176 1   
   175  177  178 1   
   176  177  179 1   
@<TRIPOS>SUBSTRUCTURE
     1 MOL         1 TEMP              0 ****  ****    0 ROOT
