@<TRIPOS>MOLECULE
MOL
  175   173     1     0     0
SMALL
resp


@<TRIPOS>ATOM
      1 C1          0.4110    3.2950    5.7620 c3        1 MOL     -0.366488
      2 C2         -0.0380    3.5230    4.3330 c         1 MOL      0.746759
      3 O1          0.7280    3.8460    3.4730 o         1 MOL     -0.542932
      4 H1          0.7880    2.2780    5.8660 hc        1 MOL      0.084343
      5 H2          1.2020    4.0020    6.0120 hc        1 MOL      0.084343
      6 H3         -0.4330    3.4390    6.4360 hc        1 MOL      0.084343
      7 N1         -1.3640    3.3630    4.1330 n         1 MOL     -0.679272
      8 C3         -2.1180    3.3570    2.9000 c3        1 MOL      0.266459
      9 C4         -1.9900    4.6000    1.9510 c         1 MOL      0.581712
     10 O2         -2.0990    5.7710    2.4440 o         1 MOL     -0.594340
     11 C5         -3.5500    2.8230    3.1100 c3        1 MOL     -0.387128
     12 C6         -4.2170    2.4630    1.7820 c         1 MOL      0.643424
     13 O3         -5.4920    2.6070    1.6590 o         1 MOL     -0.624330
     14 O4         -3.4890    2.1210    0.7870 o         1 MOL     -0.624330
     15 H4         -1.8480    3.0840    4.9740 hn        1 MOL      0.319945
     16 H5         -1.4830    2.6220    2.3840 h1        1 MOL      0.026081
     17 H6         -4.1240    3.6370    3.5590 hc        1 MOL      0.091254
     18 H7         -3.5260    1.9480    3.7630 hc        1 MOL      0.091254
     19 N2         -1.9090    4.4820    0.6070 n         1 MOL     -0.495948
     20 C7         -2.1020    5.5360   -0.3790 c3        1 MOL      0.397501
     21 C8         -3.2980    5.3240   -1.3990 c         1 MOL      0.265659
     22 O5         -3.6240    6.2330   -2.1830 o         1 MOL     -0.531299
     23 C9         -0.8000    5.7460   -1.1400 c3        1 MOL     -0.139448
     24 H8         -1.7110    3.5580    0.2510 hn        1 MOL      0.226582
     25 H9         -2.2490    6.5040    0.1000 h1        1 MOL     -0.012595
     26 H10        -0.8540    6.6180   -1.7970 hc        1 MOL      0.028651
     27 H11         0.0070    5.8660   -0.4160 hc        1 MOL      0.028651
     28 H12        -0.5640    4.9070   -1.7860 hc        1 MOL      0.028651
     29 N3         -3.8410    4.0600   -1.4780 n         1 MOL     -0.225582
     30 C10        -4.7310    3.5880   -2.5570 c3        1 MOL      0.262265
     31 C11        -6.0590    2.9130   -2.1730 c         1 MOL      0.244764
     32 O6         -6.9150    2.8730   -3.0630 o         1 MOL     -0.540307
     33 C12        -3.9110    2.6810   -3.5100 c3        1 MOL     -0.300446
     34 C13        -3.2070    1.5870   -2.7780 c         1 MOL      0.722792
     35 O7         -1.9340    1.5810   -2.8210 o         1 MOL     -0.665640
     36 O8         -3.8290    0.7330   -2.0680 o         1 MOL     -0.665640
     37 H13        -3.4570    3.4140   -0.8020 hn        1 MOL      0.174395
     38 H14        -4.9730    4.4570   -3.1670 h1        1 MOL      0.051916
     39 H15        -3.1720    3.3440   -3.9480 hc        1 MOL      0.071059
     40 H16        -4.6430    2.2950   -4.2280 hc        1 MOL      0.071059
     41 N4         -6.3490    2.3040   -1.0070 n         1 MOL     -0.060653
     42 C14        -7.5870    1.4940   -0.7520 c3        1 MOL     -0.147870
     43 C15        -7.6260    0.0210   -1.1230 c         1 MOL      0.475237
     44 O9         -8.6570   -0.5730   -1.1530 o         1 MOL     -0.601006
     45 H17        -5.6750    2.3090   -0.2570 hn        1 MOL      0.034318
     46 H18        -8.4180    1.9030   -1.3150 h1        1 MOL      0.094619
     47 H19        -7.9080    1.5570    0.2920 h1        1 MOL      0.094619
     48 N5         -6.4700   -0.5460   -1.4840 n         1 MOL     -0.060271
     49 C16        -6.3440   -1.8820   -1.9900 c3        1 MOL      0.027513
     50 C17        -6.3060   -2.9730   -0.8740 c         1 MOL      0.425613
     51 O10        -6.4160   -4.1340   -1.2510 o         1 MOL     -0.474662
     52 C18        -5.2460   -1.9400   -3.0910 c3        1 MOL     -0.302713
     53 C19        -3.8030   -2.0850   -2.5370 c         1 MOL      0.813996
     54 N6         -2.8490   -2.1770   -3.4400 n         1 MOL     -0.714900
     55 O11        -3.4950   -2.0530   -1.3970 o         1 MOL     -0.743274
     56 H20        -5.6810    0.0950   -1.5000 hn        1 MOL      0.102800
     57 H21        -7.2540   -2.1310   -2.5260 h1        1 MOL      0.095072
     58 H22        -5.2470   -0.9780   -3.6040 hc        1 MOL      0.083995
     59 H23        -5.4550   -2.8300   -3.6990 hc        1 MOL      0.083995
     60 H24        -3.1260   -2.3400   -4.4010 hn        1 MOL      0.329319
     61 H25        -1.8760   -2.1250   -3.1660 hn        1 MOL      0.329319
     62 N7         -6.3460   -2.6350    0.4530 n         1 MOL     -0.353938
     63 C20        -6.4270   -3.6820    1.5110 c3        1 MOL      0.021151
     64 C21        -5.0980   -4.5030    1.6600 c         1 MOL      0.411039
     65 O12        -5.1630   -5.6530    2.1230 o         1 MOL     -0.558937
     66 H26        -6.2980   -1.6490    0.6590 hn        1 MOL      0.239686
     67 H27        -7.2780   -4.3320    1.3030 h1        1 MOL      0.062103
     68 H28        -6.6640   -3.2400    2.4730 h1        1 MOL      0.062103
     69 N8         -3.9930   -3.9810    1.0880 n         1 MOL     -0.124086
     70 C22        -2.6210   -4.5530    1.0200 c3        1 MOL     -0.010522
     71 C23        -1.5290   -3.4470    1.2820 c         1 MOL      0.211614
     72 O13        -1.5590   -2.3730    0.6820 o         1 MOL     -0.323709
     73 C24        -2.3630   -5.2300   -0.3170 c3        1 MOL      0.427822
     74 C25        -2.9150   -6.6280   -0.2230 c3        1 MOL     -0.580141
     75 O14        -3.0150   -4.7220   -1.4040 oh        1 MOL     -0.531840
     76 H29        -4.0740   -3.0630    0.6880 hn        1 MOL      0.056113
     77 H30        -2.5260   -5.2950    1.8110 h1        1 MOL      0.061546
     78 H31        -1.2780   -5.1850   -0.4440 h1        1 MOL      0.003076
     79 H32        -2.8150   -3.7860   -1.4070 ho        1 MOL      0.322628
     80 H33        -2.4730   -7.0960    0.6560 hc        1 MOL      0.146682
     81 H34        -4.0050   -6.7420   -0.2440 hc        1 MOL      0.146682
     82 H35        -2.5290   -7.1690   -1.0810 hc        1 MOL      0.146682
     83 N9         -0.5040   -3.6970    2.0240 n         1 MOL     -0.339477
     84 C26         0.7520   -2.9690    1.9310 c3        1 MOL     -0.084833
     85 C27         1.3210   -3.1420    0.5430 c         1 MOL      0.464101
     86 O15         1.5950   -4.2520    0.0470 o         1 MOL     -0.561059
     87 C28         1.7480   -3.4670    3.0180 c3        1 MOL      0.208022
     88 C29         1.3900   -2.9860    4.4180 c3        1 MOL      0.059799
     89 C30         3.1770   -3.3200    2.6580 c3        1 MOL     -0.326466
     90 C31         2.0610   -3.7570    5.6490 c3        1 MOL     -0.058628
     91 H36        -0.5460   -4.6420    2.3810 hn        1 MOL      0.292304
     92 H37         0.5880   -1.8910    1.9820 h1        1 MOL      0.005144
     93 H38         1.5350   -4.5330    3.0540 hc        1 MOL     -0.022816
     94 H39         0.3320   -3.2240    4.4800 hc        1 MOL     -0.026657
     95 H40         1.5940   -1.9200    4.5300 hc        1 MOL     -0.026657
     96 H41         3.8560   -3.7560    3.3910 hc        1 MOL      0.070915
     97 H42         3.3790   -3.8670    1.7350 hc        1 MOL      0.070915
     98 H43         3.4130   -2.2910    2.3820 hc        1 MOL      0.070915
     99 H44         1.6970   -3.3330    6.5850 hc        1 MOL      0.008568
    100 H45         1.7910   -4.8100    5.5640 hc        1 MOL      0.008568
    101 H46         3.1440   -3.6230    5.6230 hc        1 MOL      0.008568
    102 N10         1.6050   -1.9780   -0.1400 n         1 MOL     -0.266608
    103 C32         2.5580   -1.9550   -1.3570 c3        1 MOL     -0.040120
    104 C33         4.0040   -1.5640   -0.9270 c         1 MOL      0.553852
    105 O16         4.1960   -0.9140    0.0810 o         1 MOL     -0.358461
    106 C34         1.9320   -0.9880   -2.3750 c3        1 MOL     -0.274777
    107 C35         0.4210   -1.2040   -2.7500 c         1 MOL      0.725061
    108 O17        -0.4240   -0.9050   -1.9140 o         1 MOL     -0.667523
    109 O18         0.1090   -1.5130   -3.9610 o         1 MOL     -0.667523
    110 H47         1.3690   -1.0540    0.1970 hn        1 MOL      0.338818
    111 H48         2.5990   -2.8870   -1.9090 h1        1 MOL      0.092357
    112 H49         2.4360   -1.0500   -3.3410 hc        1 MOL      0.052764
    113 H50         2.0300    0.0020   -1.9320 hc        1 MOL      0.052764
    114 N11         4.9560   -1.7600   -1.8100 n         1 MOL     -0.788520
    115 C36         6.3790   -1.4350   -1.5430 c3        1 MOL      0.551233
    116 C37         6.7560    0.0200   -1.0340 c         1 MOL      0.222336
    117 O19         7.4800    0.1580   -0.0590 o         1 MOL     -0.464862
    118 C38         7.3180   -1.9970   -2.6000 c3        1 MOL     -0.314896
    119 C39         8.7870   -1.6480   -2.3950 ca        1 MOL      0.107666
    120 C40         9.3530   -0.5740   -3.0720 ca        1 MOL     -0.138971
    121 C41         9.5810   -2.4230   -1.4960 ca        1 MOL     -0.138971
    122 C42        10.7490   -0.3100   -2.9380 ca        1 MOL     -0.141497
    123 C43        10.9310   -2.0940   -1.3020 ca        1 MOL     -0.141497
    124 C44        11.4980   -1.0360   -2.0500 ca        1 MOL     -0.093537
    125 H51         4.7190   -2.3000   -2.6320 hn        1 MOL      0.372239
    126 H52         6.6450   -2.0460   -0.6880 h1        1 MOL      0.012558
    127 H53         7.0490   -1.6020   -3.5820 hc        1 MOL      0.085575
    128 H54         7.2110   -3.0790   -2.6630 hc        1 MOL      0.085575
    129 H55         8.7070    0.0080   -3.7040 ha        1 MOL      0.109935
    130 H56         9.1120   -3.2120   -0.9310 ha        1 MOL      0.109935
    131 H57        11.1960    0.5910   -3.3370 ha        1 MOL      0.120243
    132 H58        11.4630   -2.6240   -0.5230 ha        1 MOL      0.120243
    133 H59        12.4870   -0.6780   -1.8210 ha        1 MOL      0.101016
    134 N12         6.3580    1.1570   -1.6640 n         1 MOL     -0.079300
    135 C45         6.4500    2.5050   -1.1270 c3        1 MOL      0.097084
    136 C46         5.7640    2.7250    0.2730 c         1 MOL      0.220873
    137 O20         6.0230    3.6870    0.9890 o         1 MOL     -0.488473
    138 C47         5.9650    3.4480   -2.1970 c3        1 MOL     -0.082533
    139 C48         5.9870    2.6160   -3.4710 c3        1 MOL      0.042815
    140 C49         5.7230    1.2040   -2.9970 c3        1 MOL     -0.133895
    141 H60         7.5060    2.7750   -1.0460 h1        1 MOL      0.050749
    142 H61         4.9420    3.6440   -1.8780 hc        1 MOL      0.041056
    143 H62         6.5280    4.3690   -2.3340 hc        1 MOL      0.041056
    144 H63         5.2930    2.8690   -4.2700 hc        1 MOL      0.012923
    145 H64         6.9600    2.6380   -3.9730 hc        1 MOL      0.012923
    146 H65         4.6540    1.1990   -2.7960 h1        1 MOL      0.072429
    147 H66         5.9840    0.4490   -3.7410 h1        1 MOL      0.072429
    148 N13         4.7770    1.8840    0.6460 n         1 MOL      0.126511
    149 C50         4.1520    1.8960    1.9720 c3        1 MOL     -0.172493
    150 C51         4.9990    1.1730    3.0490 c         1 MOL      0.512741
    151 O21         5.1760    1.6540    4.1440 o         1 MOL     -0.547776
    152 C52         2.7240    1.4960    1.8820 c3        1 MOL     -0.085508
    153 C53         1.8650    2.2500    0.7990 c3        1 MOL     -0.097172
    154 C54         0.4760    1.5760    0.6210 c         1 MOL      0.546735
    155 O22        -0.4020    2.1050   -0.1400 o         1 MOL     -0.650285
    156 O23         0.2110    0.4580    1.1110 o         1 MOL     -0.650285
    157 H67         4.4110    1.2110   -0.0130 hn        1 MOL      0.109428
    158 H68         4.1250    2.9540    2.2300 h1        1 MOL      0.109990
    159 H69         2.1670    1.6360    2.8090 hc        1 MOL      0.042238
    160 H70         2.7380    0.4290    1.6500 hc        1 MOL      0.042238
    161 H71         2.3500    2.4570   -0.1530 hc        1 MOL      0.056339
    162 H72         1.7220    3.2530    1.2150 hc        1 MOL      0.056339
    163 N14         5.6610    0.0620    2.6130 n         1 MOL     -0.112368
    164 C55         6.6810   -0.6980    3.3150 c3        1 MOL     -0.257434
    165 H73         6.4180   -1.7560    3.3030 h1        1 MOL      0.095462
    166 H74         7.6430   -0.5580    2.8230 h1        1 MOL      0.095462
    167 H75         6.7460   -0.3520    4.3470 h1        1 MOL      0.095462
    168 H76         5.4990   -0.1170    1.6350 hn        1 MOL      0.057244
    169 Ca1        -2.0680    0.0450   -0.2410 Ca        1 MOL      1.657536
    170 O24        -1.8200   -0.0820    3.0140 oh        1 MOL     -0.695933
    171 H77        -0.9320    0.0540    2.6880 ho        1 MOL      0.356184
    172 H78        -1.7060   -0.2830    3.9440 ho        1 MOL      0.356184
    173 O25        -4.1080   -0.9430    1.4420 oh        1 MOL     -0.695933
    174 H79        -3.7030   -0.6780    2.2690 ho        1 MOL      0.356184
    175 H80        -5.0410   -0.7890    1.5710 ho        1 MOL      0.356184
@<TRIPOS>BOND
     1    1    2 1   
     2    1    4 1   
     3    1    5 1   
     4    1    6 1   
     5    2    3 2   
     6    2    7 1   
     7    7    8 1   
     8    7   15 1   
     9    8    9 1   
    10    8   11 1   
    11    8   16 1   
    12    9   10 2   
    13    9   19 1   
    14   11   12 1   
    15   11   17 1   
    16   11   18 1   
    17   12   13 1   
    18   12   14 1   
    19   19   20 1   
    20   19   24 1   
    21   20   21 1   
    22   20   23 1   
    23   20   25 1   
    24   21   22 2   
    25   21   29 1   
    26   23   26 1   
    27   23   27 1   
    28   23   28 1   
    29   29   30 1   
    30   29   37 1   
    31   30   31 1   
    32   30   33 1   
    33   30   38 1   
    34   31   32 2   
    35   31   41 1   
    36   33   34 1   
    37   33   39 1   
    38   33   40 1   
    39   34   35 1   
    40   34   36 1   
    41   41   42 1   
    42   41   45 1   
    43   42   43 1   
    44   42   46 1   
    45   42   47 1   
    46   43   44 2   
    47   43   48 1   
    48   48   49 1   
    49   48   56 1   
    50   49   50 1   
    51   49   52 1   
    52   49   57 1   
    53   50   51 2   
    54   50   62 1   
    55   52   53 1   
    56   52   58 1   
    57   52   59 1   
    58   53   54 1   
    59   53   55 2   
    60   54   60 1   
    61   54   61 1   
    62   62   63 1   
    63   62   66 1   
    64   63   64 1   
    65   63   67 1   
    66   63   68 1   
    67   64   65 2   
    68   64   69 1   
    69   69   70 1   
    70   69   76 1   
    71   70   71 1   
    72   70   73 1   
    73   70   77 1   
    74   71   72 2   
    75   71   83 1   
    76   73   74 1   
    77   73   75 1   
    78   73   78 1   
    79   74   80 1   
    80   74   81 1   
    81   74   82 1   
    82   75   79 1   
    83   83   84 1   
    84   83   91 1   
    85   84   85 1   
    86   84   87 1   
    87   84   92 1   
    88   85   86 2   
    89   85  102 1   
    90   87   88 1   
    91   87   89 1   
    92   87   93 1   
    93   88   90 1   
    94   88   94 1   
    95   88   95 1   
    96   89   96 1   
    97   89   97 1   
    98   89   98 1   
    99   90   99 1   
   100   90  100 1   
   101   90  101 1   
   102  102  103 1   
   103  102  110 1   
   104  103  104 1   
   105  103  106 1   
   106  103  111 1   
   107  104  105 2   
   108  104  114 1   
   109  106  107 1   
   110  106  112 1   
   111  106  113 1   
   112  107  108 1   
   113  107  109 1   
   114  114  115 1   
   115  114  125 1   
   116  115  116 1   
   117  115  118 1   
   118  115  126 1   
   119  116  117 2   
   120  116  134 1   
   121  118  119 1   
   122  118  127 1   
   123  118  128 1   
   124  119  120 ar  
   125  119  121 ar  
   126  120  122 ar  
   127  120  129 1   
   128  121  123 ar  
   129  121  130 1   
   130  122  124 ar  
   131  122  131 1   
   132  123  124 ar  
   133  123  132 1   
   134  124  133 1   
   135  134  135 1   
   136  134  140 1   
   137  135  136 1   
   138  135  138 1   
   139  135  141 1   
   140  136  137 2   
   141  136  148 1   
   142  138  139 1   
   143  138  142 1   
   144  138  143 1   
   145  139  140 1   
   146  139  144 1   
   147  139  145 1   
   148  140  146 1   
   149  140  147 1   
   150  148  149 1   
   151  148  157 1   
   152  149  150 1   
   153  149  152 1   
   154  149  158 1   
   155  150  151 2   
   156  150  163 1   
   157  152  153 1   
   158  152  159 1   
   159  152  160 1   
   160  153  154 1   
   161  153  161 1   
   162  153  162 1   
   163  154  155 1   
   164  154  156 1   
   165  163  164 1   
   166  163  168 1   
   167  164  165 1   
   168  164  166 1   
   169  164  167 1   
   170  170  171 1   
   171  170  172 1   
   172  173  174 1   
   173  173  175 1   
@<TRIPOS>SUBSTRUCTURE
     1 MOL         1 TEMP              0 ****  ****    0 ROOT
