@<TRIPOS>MOLECULE
MOL
  186   183     1     0     0
SMALL
resp


@<TRIPOS>ATOM
      1 C1          0.6480    3.1180   -5.8950 c3        1 MOL     -0.251072
      2 C2          0.9210    2.7760   -4.3900 c         1 MOL      0.706938
      3 O1          0.0250    2.9540   -3.5450 o         1 MOL     -0.548349
      4 H1         -0.4160    3.0060   -6.1050 hc        1 MOL      0.054742
      5 H2          0.9520    4.1450   -6.0960 hc        1 MOL      0.054742
      6 H3          1.2170    2.4390   -6.5300 hc        1 MOL      0.054742
      7 N1          2.1340    2.2760   -4.1050 n         1 MOL     -0.691509
      8 C3          2.6210    2.1190   -2.7300 c3        1 MOL      0.188035
      9 C4          3.0890    3.4770   -2.1790 c         1 MOL      0.540722
     10 O2          4.0490    4.0750   -2.6710 o         1 MOL     -0.616989
     11 C5          3.6840    1.0470   -2.7380 c3        1 MOL     -0.119255
     12 C6          4.3630    0.9040   -1.4440 c         1 MOL      0.552330
     13 O3          5.5690    0.6360   -1.3400 o         1 MOL     -0.582237
     14 O4          3.6750    1.0470   -0.4010 o         1 MOL     -0.582237
     15 H4          2.8230    2.2920   -4.8470 hn        1 MOL      0.334816
     16 H5          1.7290    1.7840   -2.1950 h1        1 MOL      0.065048
     17 H6          4.4940    1.2360   -3.4360 hc        1 MOL      0.027034
     18 H7          3.1480    0.1450   -3.0130 hc        1 MOL      0.027034
     19 N2          2.4090    3.8780   -1.1060 n         1 MOL     -0.020706
     20 C7          2.6620    5.1350   -0.4540 c3        1 MOL     -0.022348
     21 C8          3.6140    5.1990    0.7200 c         1 MOL      0.328726
     22 O5          3.9280    6.2830    1.2990 o         1 MOL     -0.549380
     23 C9          1.3070    5.7700   -0.1600 c3        1 MOL      0.277840
     24 C10         0.4080    5.8070   -1.4440 c3        1 MOL     -0.237451
     25 C11         1.2780    7.2190    0.4420 c3        1 MOL     -0.235952
     26 C12         1.0090    6.2740   -2.8000 c3        1 MOL     -0.021635
     27 H8          1.6100    3.3380   -0.8020 hn        1 MOL      0.124018
     28 H9          3.1530    5.7290   -1.2180 h1        1 MOL      0.054584
     29 H10         0.8100    5.2190    0.6480 hc        1 MOL      0.008684
     30 H11        -0.4920    6.3910   -1.2290 hc        1 MOL      0.053100
     31 H12         0.0500    4.7940   -1.6420 hc        1 MOL      0.053100
     32 H13         0.2710    7.6290    0.5420 hc        1 MOL      0.041793
     33 H14         1.6650    7.1500    1.4520 hc        1 MOL      0.041793
     34 H15         1.8540    7.9130   -0.1800 hc        1 MOL      0.041793
     35 H16         1.6200    5.4680   -3.2140 hc        1 MOL     -0.002422
     36 H17         0.2430    6.5100   -3.5350 hc        1 MOL     -0.002422
     37 H18         1.7340    7.0800   -2.7020 hc        1 MOL     -0.002422
     38 N3          3.9520    3.9880    1.2340 n         1 MOL     -0.038962
     39 C13         4.8370    3.7050    2.3940 c3        1 MOL      0.024852
     40 C14         6.1450    2.9990    2.1100 c         1 MOL      0.326373
     41 O6          6.9700    3.0540    3.0150 o         1 MOL     -0.493255
     42 C15         4.1180    2.9770    3.6070 c3        1 MOL     -0.134529
     43 C16         3.4560    1.6810    3.2070 c         1 MOL      0.711024
     44 O7          4.1670    0.6540    2.9370 o         1 MOL     -0.715349
     45 O8          2.2810    1.7000    2.9110 o         1 MOL     -0.715349
     46 H19         3.6700    3.2020    0.6650 hn        1 MOL     -0.047967
     47 H20         5.1490    4.6600    2.8110 h1        1 MOL      0.078325
     48 H21         3.3810    3.6650    4.0270 hc        1 MOL      0.033622
     49 H22         4.7860    2.7140    4.4180 hc        1 MOL      0.033622
     50 N4          6.3750    2.2390    1.0240 n         1 MOL     -0.161516
     51 C17         7.7110    1.6960    0.6860 c3        1 MOL     -0.186866
     52 C18         7.9540    0.2570    1.1360 c         1 MOL      0.457337
     53 O9          8.8970   -0.1100    1.8380 o         1 MOL     -0.569121
     54 H23         5.6690    2.0800    0.3260 hn        1 MOL      0.188712
     55 H24         8.4640    2.2480    1.2330 h1        1 MOL      0.081791
     56 H25         7.8680    1.6430   -0.4000 h1        1 MOL      0.081791
     57 N5          6.9000   -0.5850    1.0160 n         1 MOL     -0.062746
     58 C19         7.0470   -2.0500    1.1810 c3        1 MOL     -0.185306
     59 C20         6.9090   -2.8740   -0.0810 c         1 MOL      0.467783
     60 O10         7.1070   -4.0980   -0.0270 o         1 MOL     -0.540950
     61 C21         6.1290   -2.6610    2.2560 c3        1 MOL     -0.003262
     62 C22         4.6220   -2.4410    1.9810 c         1 MOL      0.619283
     63 O11         4.2790   -1.8780    0.9240 o         1 MOL     -0.665783
     64 O12         3.8130   -2.8790    2.8320 o         1 MOL     -0.665783
     65 H26         5.9850   -0.2080    0.7980 hn        1 MOL      0.186178
     66 H27         8.0310   -2.2500    1.6140 h1        1 MOL      0.110569
     67 H28         6.3990   -2.3560    3.2660 hc        1 MOL      0.031097
     68 H29         6.3140   -3.7300    2.2960 hc        1 MOL      0.031097
     69 N6          6.7410   -2.1260   -1.2130 n         1 MOL     -0.331225
     70 C23         6.5190   -2.7920   -2.4830 c3        1 MOL      0.008792
     71 C24         5.1300   -3.4640   -2.5630 c         1 MOL      0.375363
     72 O13         4.9560   -4.1980   -3.5030 o         1 MOL     -0.573144
     73 H30         6.6110   -1.1290   -1.1410 hn        1 MOL      0.197248
     74 H31         7.2490   -3.5920   -2.6390 h1        1 MOL      0.050955
     75 H32         6.7030   -1.9980   -3.2080 h1        1 MOL      0.050955
     76 N7          4.1460   -3.2260   -1.6810 n         1 MOL     -0.059848
     77 C25         2.8920   -3.8800   -1.7020 c3        1 MOL      0.137640
     78 C26         1.8450   -2.8350   -1.5860 c         1 MOL      0.450850
     79 O14         2.0430   -1.7220   -1.0360 o         1 MOL     -0.770379
     80 C27         2.7510   -4.8950   -0.5500 c3        1 MOL     -0.108668
     81 C28         3.8930   -5.8600   -0.4800 c3        1 MOL      0.005390
     82 C29         3.9490   -6.7490    0.7570 c         1 MOL      0.590309
     83 N8          4.3590   -7.9100    0.6920 n         1 MOL     -0.691045
     84 O15         3.5930   -6.2800    1.8690 o         1 MOL     -0.563061
     85 H33         4.4390   -2.5960   -0.9400 hn        1 MOL      0.233135
     86 H34         2.8150   -4.3660   -2.6710 h1        1 MOL      0.001788
     87 H35         1.8060   -5.4480   -0.5350 hc        1 MOL      0.021976
     88 H36         2.7560   -4.3520    0.3940 hc        1 MOL      0.021976
     89 H37         4.8240   -5.2970   -0.4630 hc        1 MOL     -0.011370
     90 H38         3.9430   -6.5630   -1.3200 hc        1 MOL     -0.011370
     91 H39         4.6480   -8.2750   -0.2090 hn        1 MOL      0.324977
     92 H40         4.0960   -8.5280    1.4390 hn        1 MOL      0.324977
     93 N9          0.6480   -3.1350   -2.1190 n         1 MOL     -0.401270
     94 C30        -0.4470   -2.1880   -2.1400 c3        1 MOL      0.020414
     95 C31        -1.5950   -2.8200   -1.3740 c         1 MOL      0.543958
     96 O16        -2.1360   -3.8360   -1.7920 o         1 MOL     -0.605756
     97 C32        -0.6740   -1.8480   -3.5990 c3        1 MOL     -0.022559
     98 C33        -1.9310   -1.0520   -3.8250 c3        1 MOL     -0.114333
     99 C34         0.5420   -0.9380   -4.1130 c3        1 MOL     -0.114333
    100 H41         0.6560   -4.0870   -2.4580 hn        1 MOL      0.276669
    101 H42        -0.2880   -1.2360   -1.6230 h1        1 MOL      0.254575
    102 H43        -0.6880   -2.7670   -4.1770 hc        1 MOL      0.027072
    103 H44        -1.9080   -0.1540   -3.2020 hc        1 MOL      0.028210
    104 H45        -2.1310   -0.7630   -4.8510 hc        1 MOL      0.028210
    105 H46        -2.7840   -1.6640   -3.5430 hc        1 MOL      0.028210
    106 H47         0.5650   -0.8400   -5.2000 hc        1 MOL      0.028210
    107 H48         0.4970    0.0410   -3.6400 hc        1 MOL      0.028210
    108 H49         1.5090   -1.4120   -3.9300 hc        1 MOL      0.028210
    109 N10        -1.9130   -2.3190   -0.2550 n         1 MOL     -0.333941
    110 C35        -3.0910   -2.5830    0.5120 c3        1 MOL      0.091894
    111 C36        -4.3590   -2.0440   -0.1390 c         1 MOL      0.476125
    112 O17        -4.2010   -1.1070   -0.9030 o         1 MOL     -0.369068
    113 C37        -2.8270   -2.0410    1.9280 c3        1 MOL     -0.212410
    114 C38        -3.7140   -2.6430    2.9440 c         1 MOL      0.687892
    115 N11        -3.1900   -3.5080    3.7620 n         1 MOL     -0.787192
    116 O18        -4.9140   -2.4240    2.9630 o         1 MOL     -0.565855
    117 H50        -1.4440   -1.4520   -0.0270 hn        1 MOL      0.178157
    118 H51        -3.2680   -3.6550    0.6190 h1        1 MOL      0.040247
    119 H52        -3.0460   -0.9740    1.9290 hc        1 MOL      0.086459
    120 H53        -1.8040   -2.2070    2.2780 hc        1 MOL      0.086459
    121 H54        -2.1860   -3.4290    3.8710 hn        1 MOL      0.364544
    122 H55        -3.6880   -3.7770    4.6010 hn        1 MOL      0.364544
    123 N12        -5.5500   -2.4780    0.1670 n         1 MOL     -0.632860
    124 C39        -6.8350   -1.9650   -0.2210 c3        1 MOL      0.451657
    125 C40        -6.8920   -0.4940    0.2170 c         1 MOL      0.610826
    126 O19        -7.4140    0.3300   -0.4960 o         1 MOL     -0.551902
    127 C41        -7.9930   -2.7690    0.4100 c3        1 MOL     -0.253529
    128 C42        -9.3450   -2.1720   -0.0140 ca        1 MOL      0.119710
    129 C43        -9.7850   -2.2710   -1.3630 ca        1 MOL     -0.236865
    130 C44       -10.1060   -1.4660    0.9160 ca        1 MOL     -0.236865
    131 C45       -11.1120   -1.8250   -1.7170 ca        1 MOL     -0.220083
    132 C46       -11.2980   -0.8160    0.5390 ca        1 MOL     -0.220083
    133 C47       -11.8410   -1.0610   -0.7320 ca        1 MOL      0.287813
    134 O20       -13.0600   -0.5250   -1.0780 oh        1 MOL     -0.485628
    135 H56        -5.5370   -3.3190    0.7250 hn        1 MOL      0.307638
    136 H57        -7.0960   -2.0890   -1.2720 h1        1 MOL     -0.018485
    137 H58        -7.8870   -2.5970    1.4830 hc        1 MOL      0.064461
    138 H59        -7.9330   -3.7940    0.0690 hc        1 MOL      0.064461
    139 H60        -9.2740   -2.7670   -2.1840 ha        1 MOL      0.164085
    140 H61        -9.7070   -1.1900    1.8840 ha        1 MOL      0.164085
    141 H62       -11.4820   -1.8960   -2.7290 ha        1 MOL      0.147564
    142 H63       -11.8440   -0.2090    1.2400 ha        1 MOL      0.147564
    143 H64       -13.2500   -0.0190   -0.2780 ho        1 MOL      0.345084
    144 N13        -6.1930   -0.1420    1.2440 n         1 MOL     -0.504948
    145 C48        -6.1000    1.2540    1.8060 c3        1 MOL      0.057588
    146 C49        -5.4100    2.1840    0.7850 c         1 MOL      0.264524
    147 O21        -5.7310    3.3580    0.8250 o         1 MOL     -0.526678
    148 C50        -5.2850    1.1960    3.1330 c3        1 MOL     -0.096304
    149 C51        -5.5310    2.5190    3.8240 c3        1 MOL     -0.262285
    150 C52        -5.0670    2.6100    5.2880 c         1 MOL      0.779646
    151 O22        -3.9220    2.9530    5.5480 o         1 MOL     -0.770189
    152 O23        -5.9440    2.4050    6.1850 o         1 MOL     -0.770189
    153 H65        -5.7580   -0.8400    1.8330 hn        1 MOL      0.259037
    154 H66        -7.1560    1.4780    1.9640 h1        1 MOL      0.105702
    155 H67        -4.2090    1.0920    3.0160 hc        1 MOL      0.049378
    156 H68        -5.5670    0.3510    3.7650 hc        1 MOL      0.049378
    157 H69        -6.5770    2.8170    3.8680 hc        1 MOL      0.058280
    158 H70        -4.9580    3.2700    3.2980 hc        1 MOL      0.058280
    159 N14        -4.5410    1.6650   -0.0240 n         1 MOL      0.095536
    160 C53        -3.7420    2.3330   -1.1030 c3        1 MOL     -0.108504
    161 C54        -4.3890    2.1320   -2.4530 c         1 MOL      0.411072
    162 O24        -4.1850    2.9360   -3.3930 o         1 MOL     -0.558514
    163 C55        -2.3530    1.5860   -1.0740 c3        1 MOL      0.029820
    164 C56        -1.5240    1.9720    0.1670 c3        1 MOL      0.100103
    165 C57        -0.2200    1.2040    0.2380 c         1 MOL      0.422644
    166 O25         0.8320    1.8810    0.2930 o         1 MOL     -0.629411
    167 O26        -0.2070   -0.0410    0.3010 o         1 MOL     -0.629411
    168 H71        -4.4260    0.6670    0.0420 hn        1 MOL      0.069566
    169 H72        -3.6460    3.3760   -0.8100 h1        1 MOL      0.104720
    170 H73        -1.7460    1.8150   -1.9450 hc        1 MOL      0.023676
    171 H74        -2.5370    0.5130   -1.1350 hc        1 MOL      0.023676
    172 H75        -2.1890    1.9780    1.0270 hc        1 MOL      0.003064
    173 H76        -1.2990    3.0320    0.1450 hc        1 MOL      0.003064
    174 N15        -5.2420    1.0930   -2.5660 n         1 MOL     -0.013455
    175 C58        -6.0350    0.8010   -3.7250 c3        1 MOL     -0.138928
    176 H77        -7.0280    0.4770   -3.4130 h1        1 MOL      0.055765
    177 H78        -6.1230    1.6960   -4.3410 h1        1 MOL      0.055765
    178 H79        -5.5590    0.0070   -4.3010 h1        1 MOL      0.055765
    179 H80        -5.2690    0.5360   -1.7180 hn        1 MOL     -0.045770
    180 Ca1         2.2080   -0.3650    1.1680 Ca        1 MOL      1.756290
    181 O27         1.4130   -2.7290    1.9850 oh        1 MOL     -0.836516
    182 H81         2.2970   -3.0560    2.1320 ho        1 MOL      0.394230
    183 H82         0.8810   -3.1620    2.6420 ho        1 MOL      0.394230
    184 O28         0.9510   -0.3490    3.6530 oh        1 MOL     -0.836516
    185 H83         0.0310   -0.0950    3.7390 ho        1 MOL      0.394230
    186 H84         1.4400    0.3630    4.0630 ho        1 MOL      0.394230
@<TRIPOS>BOND
     1    1    2 1   
     2    1    4 1   
     3    1    5 1   
     4    1    6 1   
     5    2    3 2   
     6    2    7 1   
     7    7    8 1   
     8    7   15 1   
     9    8    9 1   
    10    8   11 1   
    11    8   16 1   
    12    9   10 2   
    13    9   19 1   
    14   11   12 1   
    15   11   17 1   
    16   11   18 1   
    17   12   13 1   
    18   12   14 1   
    19   19   20 1   
    20   19   27 1   
    21   20   21 1   
    22   20   23 1   
    23   20   28 1   
    24   21   22 2   
    25   21   38 1   
    26   23   24 1   
    27   23   25 1   
    28   23   29 1   
    29   24   26 1   
    30   24   30 1   
    31   24   31 1   
    32   25   32 1   
    33   25   33 1   
    34   25   34 1   
    35   26   35 1   
    36   26   36 1   
    37   26   37 1   
    38   38   39 1   
    39   38   46 1   
    40   39   40 1   
    41   39   42 1   
    42   39   47 1   
    43   40   41 2   
    44   40   50 1   
    45   42   43 1   
    46   42   48 1   
    47   42   49 1   
    48   43   44 1   
    49   43   45 1   
    50   50   51 1   
    51   50   54 1   
    52   51   52 1   
    53   51   55 1   
    54   51   56 1   
    55   52   53 2   
    56   52   57 1   
    57   57   58 1   
    58   57   65 1   
    59   58   59 1   
    60   58   61 1   
    61   58   66 1   
    62   59   60 2   
    63   59   69 1   
    64   61   62 1   
    65   61   67 1   
    66   61   68 1   
    67   62   63 1   
    68   62   64 1   
    69   69   70 1   
    70   69   73 1   
    71   70   71 1   
    72   70   74 1   
    73   70   75 1   
    74   71   72 2   
    75   71   76 1   
    76   76   77 1   
    77   76   85 1   
    78   77   78 1   
    79   77   80 1   
    80   77   86 1   
    81   78   79 2   
    82   78   93 1   
    83   80   81 1   
    84   80   87 1   
    85   80   88 1   
    86   81   82 1   
    87   81   89 1   
    88   81   90 1   
    89   82   83 1   
    90   82   84 2   
    91   83   91 1   
    92   83   92 1   
    93   93   94 1   
    94   93  100 1   
    95   94   95 1   
    96   94   97 1   
    97   94  101 1   
    98   95   96 2   
    99   95  109 1   
   100   97   98 1   
   101   97   99 1   
   102   97  102 1   
   103   98  103 1   
   104   98  104 1   
   105   98  105 1   
   106   99  106 1   
   107   99  107 1   
   108   99  108 1   
   109  109  110 1   
   110  109  117 1   
   111  110  111 1   
   112  110  113 1   
   113  110  118 1   
   114  111  112 2   
   115  111  123 1   
   116  113  114 1   
   117  113  119 1   
   118  113  120 1   
   119  114  115 1   
   120  114  116 2   
   121  115  121 1   
   122  115  122 1   
   123  123  124 1   
   124  123  135 1   
   125  124  125 1   
   126  124  127 1   
   127  124  136 1   
   128  125  126 2   
   129  125  144 1   
   130  127  128 1   
   131  127  137 1   
   132  127  138 1   
   133  128  129 ar  
   134  128  130 ar  
   135  129  131 ar  
   136  129  139 1   
   137  130  132 ar  
   138  130  140 1   
   139  131  133 ar  
   140  131  141 1   
   141  132  133 ar  
   142  132  142 1   
   143  133  134 1   
   144  134  143 1   
   145  144  145 1   
   146  144  153 1   
   147  145  146 1   
   148  145  148 1   
   149  145  154 1   
   150  146  147 2   
   151  146  159 1   
   152  148  149 1   
   153  148  155 1   
   154  148  156 1   
   155  149  150 1   
   156  149  157 1   
   157  149  158 1   
   158  150  151 1   
   159  150  152 1   
   160  159  160 1   
   161  159  168 1   
   162  160  161 1   
   163  160  163 1   
   164  160  169 1   
   165  161  162 2   
   166  161  174 1   
   167  163  164 1   
   168  163  170 1   
   169  163  171 1   
   170  164  165 1   
   171  164  172 1   
   172  164  173 1   
   173  165  166 1   
   174  165  167 1   
   175  174  175 1   
   176  174  179 1   
   177  175  176 1   
   178  175  177 1   
   179  175  178 1   
   180  181  182 1   
   181  181  183 1   
   182  184  185 1   
   183  184  186 1   
@<TRIPOS>SUBSTRUCTURE
     1 MOL         1 TEMP              0 ****  ****    0 ROOT
