@<TRIPOS>MOLECULE
MOL
  179   176     1     0     0
SMALL
resp


@<TRIPOS>ATOM
      1 C1         -0.2750    4.2500    6.3930 c3        1 MOL     -0.286916
      2 C2         -0.2900    3.8960    4.8660 c         1 MOL      0.629541
      3 O1          0.5860    4.3490    4.0790 o         1 MOL     -0.599206
      4 H1          0.0520    3.3810    6.9630 hc        1 MOL      0.079639
      5 H2          0.4130    5.0780    6.5680 hc        1 MOL      0.079639
      6 H3         -1.2780    4.5370    6.7100 hc        1 MOL      0.079639
      7 N1         -1.3310    3.2160    4.4450 n         1 MOL     -0.509417
      8 C3         -1.4520    2.7990    3.0180 c3        1 MOL      0.084109
      9 C4         -2.0040    4.0460    2.2470 c         1 MOL      0.438352
     10 O2         -3.2240    4.3440    2.3540 o         1 MOL     -0.510201
     11 C5         -2.3370    1.5100    2.8210 c3        1 MOL     -0.264912
     12 C6         -2.3450    1.0070    1.3920 c         1 MOL      0.757101
     13 O3         -1.5940    1.5980    0.5810 o         1 MOL     -0.749641
     14 O4         -3.0650    0.0650    1.0250 o         1 MOL     -0.749641
     15 H4         -1.8650    2.7520    5.1680 hn        1 MOL      0.309993
     16 H5         -0.4520    2.5860    2.6410 h1        1 MOL      0.106524
     17 H6         -3.3800    1.6480    3.1130 hc        1 MOL      0.084407
     18 H7         -1.8170    0.7890    3.4530 hc        1 MOL      0.084407
     19 N2         -1.1360    4.6370    1.4650 n         1 MOL     -0.033818
     20 C7         -1.4090    5.9350    0.8290 c3        1 MOL     -0.349457
     21 C8         -2.5320    5.9980   -0.2730 c         1 MOL      0.637393
     22 O5         -3.0230    7.0780   -0.5930 o         1 MOL     -0.596391
     23 C9         -0.0130    6.4160    0.2400 c3        1 MOL     -0.110493
     24 C10        -0.0050    7.7860   -0.4690 c3        1 MOL      0.040784
     25 C11         1.3400    8.1350   -1.1560 c3        1 MOL     -0.275266
     26 C12         1.1200    9.2430   -2.2520 c3        1 MOL      0.174161
     27 N3          2.2970    9.5190   -3.0800 n4        1 MOL     -0.355339
     28 H8         -0.1900    4.2900    1.4290 hn        1 MOL      0.204705
     29 H9         -1.7010    6.7010    1.5510 h1        1 MOL      0.157166
     30 H10         0.4210    5.5870   -0.3210 hc        1 MOL      0.086867
     31 H11         0.6640    6.5630    1.0830 hc        1 MOL      0.086867
     32 H12        -0.2120    8.6470    0.1770 hc        1 MOL      0.059923
     33 H13        -0.6860    7.7370   -1.3140 hc        1 MOL      0.059923
     34 H14         1.7510    7.2690   -1.6740 hc        1 MOL      0.089738
     35 H15         1.9660    8.5720   -0.3790 hc        1 MOL      0.089738
     36 H16         0.8210   10.1370   -1.6870 hx        1 MOL      0.052768
     37 H17         0.1850    8.9950   -2.7540 hx        1 MOL      0.052768
     38 H18         2.3460   10.4430   -3.4800 hn        1 MOL      0.324537
     39 H19         3.1580    9.2550   -2.6200 hn        1 MOL      0.324537
     40 H20         2.4120    8.8660   -3.8470 hn        1 MOL      0.324537
     41 N4         -2.8780    4.8060   -0.7360 n         1 MOL     -0.326742
     42 C13        -3.8960    4.5610   -1.7840 c3        1 MOL      0.149634
     43 C14        -5.1660    3.8250   -1.2790 c         1 MOL      0.318457
     44 O6         -6.3200    3.7960   -1.7950 o         1 MOL     -0.523656
     45 C15        -3.2760    3.8300   -2.9810 c3        1 MOL     -0.312778
     46 C16        -2.7010    2.4180   -2.6080 c         1 MOL      0.756711
     47 O7         -3.4650    1.5430   -2.0680 o         1 MOL     -0.691205
     48 O8         -1.4670    2.1890   -2.6960 o         1 MOL     -0.691205
     49 H21        -2.3600    4.0480   -0.3130 hn        1 MOL      0.237973
     50 H22        -4.2370    5.4760   -2.2530 h1        1 MOL      0.083479
     51 H23        -2.4380    4.3690   -3.4200 hc        1 MOL      0.076340
     52 H24        -4.0440    3.7500   -3.7550 hc        1 MOL      0.076340
     53 N5         -4.8760    3.1830   -0.1490 n         1 MOL      0.113082
     54 C17        -5.8460    2.5350    0.7160 c3        1 MOL     -0.241647
     55 C18        -6.4300    1.1870    0.1830 c         1 MOL      0.536266
     56 O9         -7.4030    0.6780    0.6660 o         1 MOL     -0.566910
     57 H25        -3.8960    3.0980    0.0930 hn        1 MOL     -0.163343
     58 H26        -6.6650    3.1990    0.9570 h1        1 MOL      0.130817
     59 H27        -5.3270    2.2810    1.6420 h1        1 MOL      0.130817
     60 N6         -5.8340    0.5420   -0.8920 n         1 MOL     -0.152811
     61 C19        -6.3150   -0.7590   -1.4410 c3        1 MOL     -0.290764
     62 C20        -6.2860   -1.8420   -0.3730 c         1 MOL      0.474758
     63 O10        -7.0690   -2.8190   -0.4160 o         1 MOL     -0.526110
     64 C21        -5.5720   -1.0650   -2.7710 c3        1 MOL      0.075349
     65 C22        -4.4880   -2.0880   -2.6530 c         1 MOL      0.400366
     66 N7         -4.5350   -3.1020   -3.4590 n         1 MOL     -0.646620
     67 O11        -3.6130   -1.9780   -1.7490 o         1 MOL     -0.484841
     68 H28        -5.0680    1.0030   -1.3470 hn        1 MOL      0.173206
     69 H29        -7.3300   -0.4660   -1.7040 h1        1 MOL      0.145595
     70 H30        -5.1930   -0.1370   -3.1860 hc        1 MOL      0.034652
     71 H31        -6.2720   -1.4370   -3.5220 hc        1 MOL      0.034652
     72 H32        -5.2240   -3.2850   -4.1720 hn        1 MOL      0.353147
     73 H33        -3.8140   -3.7800   -3.2540 hn        1 MOL      0.353147
     74 N8         -5.5520   -1.6570    0.7270 n         1 MOL      0.025786
     75 C23        -5.5600   -2.4760    1.9330 c3        1 MOL     -0.271525
     76 C24        -4.3590   -3.4510    2.0360 c         1 MOL      0.608517
     77 O12        -4.4810   -4.4720    2.6870 o         1 MOL     -0.560943
     78 H34        -4.9940   -0.8160    0.8010 hn        1 MOL      0.168388
     79 H35        -6.5220   -2.9740    1.9370 h1        1 MOL      0.096220
     80 H36        -5.4770   -1.8030    2.7850 h1        1 MOL      0.096220
     81 N9         -3.3390   -3.1030    1.3410 n         1 MOL     -0.388447
     82 C25        -2.0460   -3.8180    1.3260 c3        1 MOL      0.205423
     83 C26        -0.8150   -2.9130    1.1270 c         1 MOL      0.213860
     84 O13        -1.0650   -1.8290    0.6340 o         1 MOL     -0.365770
     85 C27        -2.0450   -4.7020    0.0100 c3        1 MOL     -0.010133
     86 C28        -3.0740   -5.8140   -0.0690 ca        1 MOL      0.319224
     87 C29        -4.4250   -5.5890   -0.4340 ca        1 MOL     -0.448813
     88 C30        -2.6750   -7.1430    0.2660 ca        1 MOL     -0.448813
     89 C31        -5.3740   -6.6140   -0.5370 ca        1 MOL     -0.000398
     90 C32        -3.6160   -8.1700    0.2270 ca        1 MOL     -0.000398
     91 C33        -4.9170   -7.9440   -0.2350 ca        1 MOL      0.086617
     92 O14        -5.8750   -8.9410   -0.2000 oh        1 MOL     -0.407500
     93 H37        -3.4780   -2.2060    0.9120 hn        1 MOL      0.244512
     94 H38        -1.9630   -4.4440    2.2110 h1        1 MOL      0.011094
     95 H39        -1.0570   -5.0770   -0.2400 hc        1 MOL     -0.023453
     96 H40        -2.2850   -4.0480   -0.8240 hc        1 MOL     -0.023453
     97 H41        -4.8550   -4.6110   -0.6130 ha        1 MOL      0.177833
     98 H42        -1.7330   -7.2610    0.7860 ha        1 MOL      0.177833
     99 H43        -6.3960   -6.4240   -0.8440 ha        1 MOL      0.105206
    100 H44        -3.4910   -9.1660    0.6440 ha        1 MOL      0.105206
    101 H45        -5.3880   -9.6760    0.1890 ho        1 MOL      0.308228
    102 N10         0.3930   -3.3820    1.4420 n         1 MOL     -0.249326
    103 C34         1.6570   -2.6790    1.2730 c3        1 MOL     -0.049777
    104 C35         2.6990   -3.6990    0.7580 c         1 MOL      0.611166
    105 O15         2.9130   -4.7630    1.2780 o         1 MOL     -0.554350
    106 C36         2.0210   -2.0180    2.6290 c3        1 MOL      0.089976
    107 C37         1.2950   -0.6260    2.6450 c3        1 MOL      0.029651
    108 C38         3.5340   -1.8730    2.9670 c3        1 MOL     -0.110618
    109 C39         1.7190    0.4450    3.7040 c3        1 MOL     -0.034560
    110 H46         0.5830   -4.2660    1.9010 hn        1 MOL      0.243580
    111 H47         1.5480   -1.9430    0.4800 h1        1 MOL     -0.034957
    112 H48         1.5840   -2.6410    3.4060 hc        1 MOL      0.000481
    113 H49         0.2210   -0.7730    2.7840 hc        1 MOL      0.012467
    114 H50         1.3070   -0.0800    1.7130 hc        1 MOL      0.012467
    115 H51         3.8500   -1.0060    2.3920 hc        1 MOL      0.019821
    116 H52         3.6000   -1.5870    4.0150 hc        1 MOL      0.019821
    117 H53         4.1070   -2.7870    2.8120 hc        1 MOL      0.019821
    118 H54         1.5450    0.0130    4.6910 hc        1 MOL     -0.002678
    119 H55         2.7780    0.7140    3.6400 hc        1 MOL     -0.002678
    120 H56         1.1070    1.3400    3.5810 hc        1 MOL     -0.002678
    121 N11         3.4010   -3.3130   -0.3100 n         1 MOL     -0.429740
    122 C40         4.7720   -3.7920   -0.7010 c3        1 MOL      0.046942
    123 C41         5.9130   -3.1170    0.0890 c         1 MOL      0.402597
    124 O16         5.7830   -2.0300    0.5970 o         1 MOL     -0.238442
    125 C42         4.9140   -3.4630   -2.1410 c3        1 MOL      0.059212
    126 O17         4.7880   -2.0890   -2.4730 oh        1 MOL     -0.499986
    127 H57         3.3310   -2.3440   -0.5740 hn        1 MOL      0.293716
    128 H58         4.8210   -4.8650   -0.5810 h1        1 MOL      0.072302
    129 H59         4.2630   -4.1190   -2.7220 h1        1 MOL      0.035303
    130 H60         5.9470   -3.7200   -2.3950 h1        1 MOL      0.035303
    131 H61         3.8960   -1.7690   -2.2840 ho        1 MOL      0.333703
    132 N12         7.0800   -3.7740    0.0410 n         1 MOL     -0.480337
    133 C43         8.3370   -3.1320    0.3100 c3        1 MOL      0.169858
    134 C44         8.5470   -1.7030   -0.2760 c         1 MOL      0.535878
    135 O18         9.0190   -0.8200    0.4050 o         1 MOL     -0.533722
    136 C45         9.3820   -4.0760   -0.2040 c3        1 MOL     -0.354791
    137 H62         7.2020   -4.6730   -0.4080 hn        1 MOL      0.298407
    138 H63         8.4260   -3.0190    1.3910 h1        1 MOL      0.071899
    139 H64         9.2930   -4.1770   -1.2920 hc        1 MOL      0.104622
    140 H65        10.3430   -3.7530    0.1950 hc        1 MOL      0.104622
    141 H66         9.2450   -5.0440    0.2740 hc        1 MOL      0.104622
    142 N13         8.2660   -1.3730   -1.5440 n         1 MOL     -0.488430
    143 C46         8.3540   -0.0140   -2.1530 c3        1 MOL      0.059358
    144 C47         7.3850    0.9990   -1.5050 c         1 MOL      0.398432
    145 O19         7.6270    2.1970   -1.5580 o         1 MOL     -0.530717
    146 C48         8.2680   -0.1310   -3.6430 c3        1 MOL     -0.318191
    147 H67         7.7540   -2.0380   -2.0960 hn        1 MOL      0.337063
    148 H68         9.3750    0.3110   -1.9580 h1        1 MOL      0.139134
    149 H69         9.1640   -0.5300   -4.1330 hc        1 MOL      0.096089
    150 H70         7.4120   -0.7620   -3.8910 hc        1 MOL      0.096089
    151 H71         8.1960    0.8520   -4.0990 hc        1 MOL      0.096089
    152 N14         6.2980    0.5050   -0.8670 n         1 MOL      0.089203
    153 C49         5.2910    1.3100   -0.1680 c3        1 MOL     -0.104014
    154 C50         5.7910    1.5430    1.2300 c         1 MOL      0.429416
    155 O20         5.6940    2.6530    1.7810 o         1 MOL     -0.565472
    156 C51         3.8810    0.8420   -0.2720 c3        1 MOL      0.033019
    157 C52         3.2100    0.8530   -1.6390 c3        1 MOL     -0.102944
    158 C53         1.9540   -0.0700   -1.7160 c         1 MOL      0.731970
    159 O21         0.8200    0.3880   -1.4460 o         1 MOL     -0.693003
    160 O22         2.0890   -1.2990   -1.8880 o         1 MOL     -0.693003
    161 H72         6.2850   -0.4970   -0.7480 hn        1 MOL     -0.167781
    162 H73         5.3110    2.2780   -0.6760 h1        1 MOL      0.083638
    163 H74         3.2470    1.3740    0.4410 hc        1 MOL      0.047696
    164 H75         3.7490   -0.1820    0.0620 hc        1 MOL      0.047696
    165 H76         3.8940    0.6060   -2.4510 hc        1 MOL      0.005529
    166 H77         2.8230    1.8360   -1.8840 hc        1 MOL      0.005529
    167 N15         6.2890    0.5120    1.8980 n         1 MOL      0.038408
    168 C54         6.9260    0.5250    3.2170 c3        1 MOL     -0.304474
    169 H78         7.6160    1.3660    3.2790 h1        1 MOL      0.111372
    170 H79         6.1620    0.6250    3.9890 h1        1 MOL      0.111372
    171 H80         7.4740   -0.4060    3.3660 h1        1 MOL      0.111372
    172 H81         6.2740   -0.3830    1.4490 hn        1 MOL      0.024308
    173 Ca1        -1.6220   -0.1500   -1.3640 Ca        1 MOL      1.624479
    174 O23        -1.6880   -0.5820   -4.0570 oh        1 MOL     -0.813459
    175 H82        -1.3790   -1.4160   -4.4150 ho        1 MOL      0.395587
    176 H83        -1.8590   -0.0310   -4.8190 ho        1 MOL      0.395587
    177 O24        -0.2260   -2.3550   -2.0970 oh        1 MOL     -0.813459
    178 H84         0.6910   -2.0910   -1.9750 ho        1 MOL      0.395587
    179 H85        -0.1830   -3.2400   -2.4540 ho        1 MOL      0.395587
@<TRIPOS>BOND
     1    1    2 1   
     2    1    4 1   
     3    1    5 1   
     4    1    6 1   
     5    2    3 2   
     6    2    7 1   
     7    7    8 1   
     8    7   15 1   
     9    8    9 1   
    10    8   11 1   
    11    8   16 1   
    12    9   10 2   
    13    9   19 1   
    14   11   12 1   
    15   11   17 1   
    16   11   18 1   
    17   12   13 1   
    18   12   14 1   
    19   19   20 1   
    20   19   28 1   
    21   20   21 1   
    22   20   23 1   
    23   20   29 1   
    24   21   22 2   
    25   21   41 1   
    26   23   24 1   
    27   23   30 1   
    28   23   31 1   
    29   24   25 1   
    30   24   32 1   
    31   24   33 1   
    32   25   26 1   
    33   25   34 1   
    34   25   35 1   
    35   26   27 1   
    36   26   36 1   
    37   26   37 1   
    38   27   38 1   
    39   27   39 1   
    40   27   40 1   
    41   41   42 1   
    42   41   49 1   
    43   42   43 1   
    44   42   45 1   
    45   42   50 1   
    46   43   44 2   
    47   43   53 1   
    48   45   46 1   
    49   45   51 1   
    50   45   52 1   
    51   46   47 1   
    52   46   48 1   
    53   53   54 1   
    54   53   57 1   
    55   54   55 1   
    56   54   58 1   
    57   54   59 1   
    58   55   56 2   
    59   55   60 1   
    60   60   61 1   
    61   60   68 1   
    62   61   62 1   
    63   61   64 1   
    64   61   69 1   
    65   62   63 2   
    66   62   74 1   
    67   64   65 1   
    68   64   70 1   
    69   64   71 1   
    70   65   66 1   
    71   65   67 2   
    72   66   72 1   
    73   66   73 1   
    74   74   75 1   
    75   74   78 1   
    76   75   76 1   
    77   75   79 1   
    78   75   80 1   
    79   76   77 2   
    80   76   81 1   
    81   81   82 1   
    82   81   93 1   
    83   82   83 1   
    84   82   85 1   
    85   82   94 1   
    86   83   84 2   
    87   83  102 1   
    88   85   86 1   
    89   85   95 1   
    90   85   96 1   
    91   86   87 ar  
    92   86   88 ar  
    93   87   89 ar  
    94   87   97 1   
    95   88   90 ar  
    96   88   98 1   
    97   89   91 ar  
    98   89   99 1   
    99   90   91 ar  
   100   90  100 1   
   101   91   92 1   
   102   92  101 1   
   103  102  103 1   
   104  102  110 1   
   105  103  104 1   
   106  103  106 1   
   107  103  111 1   
   108  104  105 2   
   109  104  121 1   
   110  106  107 1   
   111  106  108 1   
   112  106  112 1   
   113  107  109 1   
   114  107  113 1   
   115  107  114 1   
   116  108  115 1   
   117  108  116 1   
   118  108  117 1   
   119  109  118 1   
   120  109  119 1   
   121  109  120 1   
   122  121  122 1   
   123  121  127 1   
   124  122  123 1   
   125  122  125 1   
   126  122  128 1   
   127  123  124 2   
   128  123  132 1   
   129  125  126 1   
   130  125  129 1   
   131  125  130 1   
   132  126  131 1   
   133  132  133 1   
   134  132  137 1   
   135  133  134 1   
   136  133  136 1   
   137  133  138 1   
   138  134  135 2   
   139  134  142 1   
   140  136  139 1   
   141  136  140 1   
   142  136  141 1   
   143  142  143 1   
   144  142  147 1   
   145  143  144 1   
   146  143  146 1   
   147  143  148 1   
   148  144  145 2   
   149  144  152 1   
   150  146  149 1   
   151  146  150 1   
   152  146  151 1   
   153  152  153 1   
   154  152  161 1   
   155  153  154 1   
   156  153  156 1   
   157  153  162 1   
   158  154  155 2   
   159  154  167 1   
   160  156  157 1   
   161  156  163 1   
   162  156  164 1   
   163  157  158 1   
   164  157  165 1   
   165  157  166 1   
   166  158  159 1   
   167  158  160 1   
   168  167  168 1   
   169  167  172 1   
   170  168  169 1   
   171  168  170 1   
   172  168  171 1   
   173  174  175 1   
   174  174  176 1   
   175  177  178 1   
   176  177  179 1   
@<TRIPOS>SUBSTRUCTURE
     1 MOL         1 TEMP              0 ****  ****    0 ROOT
