@<TRIPOS>MOLECULE
MOL
  179   176     1     0     0
SMALL
resp


@<TRIPOS>ATOM
      1 C1         -1.7730   -4.0030    5.8480 c3        1 MOL     -0.390790
      2 C2         -1.3800   -3.5870    4.4210 c         1 MOL      0.687644
      3 O1         -2.2770   -3.5340    3.5610 o         1 MOL     -0.613151
      4 H1         -2.0690   -5.0520    5.8520 hc        1 MOL      0.101169
      5 H2         -0.9230   -3.8640    6.5160 hc        1 MOL      0.101169
      6 H3         -2.6070   -3.3890    6.1890 hc        1 MOL      0.101169
      7 N1         -0.1350   -3.2000    4.1810 n         1 MOL     -0.449291
      8 C3          0.2390   -2.8940    2.8290 c3        1 MOL      0.011719
      9 C4          0.6830   -4.1220    2.0330 c         1 MOL      0.432759
     10 O2          1.3400   -5.0070    2.6150 o         1 MOL     -0.544702
     11 C5          1.4730   -2.0430    3.0740 c3        1 MOL     -0.183722
     12 C6          2.2700   -1.5790    1.8620 c         1 MOL      0.907393
     13 O3          3.4660   -1.2100    1.9700 o         1 MOL     -0.799500
     14 O4          1.6240   -1.5090    0.7870 o         1 MOL     -0.799500
     15 H4          0.5610   -3.1050    4.9100 hn        1 MOL      0.310034
     16 H5         -0.5290   -2.4290    2.2100 h1        1 MOL      0.030356
     17 H6          2.1870   -2.6860    3.6040 hc        1 MOL      0.046408
     18 H7          1.2220   -1.2390    3.7620 hc        1 MOL      0.046408
     19 N2          0.4510   -4.1180    0.7300 n         1 MOL     -0.156371
     20 C7          0.4370   -5.3310   -0.1410 c3        1 MOL     -0.106419
     21 C8          1.6540   -5.5060   -1.0780 c         1 MOL      0.512205
     22 O5          1.7210   -6.5210   -1.8060 o         1 MOL     -0.563641
     23 C9         -0.8460   -5.2080   -1.0690 c3        1 MOL     -0.130890
     24 C10        -2.0980   -5.0420   -0.2980 c3        1 MOL      0.027521
     25 C11        -3.2010   -5.4640   -1.3250 c3        1 MOL     -0.074883
     26 C12        -4.6230   -5.3720   -0.7850 c3        1 MOL      0.019256
     27 N3         -4.8050   -6.2810    0.3870 n4        1 MOL     -0.346939
     28 H8         -0.0080   -3.2700    0.4280 hn        1 MOL      0.173884
     29 H9          0.4650   -6.2620    0.4210 h1        1 MOL      0.104503
     30 H10        -0.9700   -6.1100   -1.6760 hc        1 MOL      0.096356
     31 H11        -0.6560   -4.4000   -1.7670 hc        1 MOL      0.096356
     32 H12        -2.2330   -4.0130    0.0540 hc        1 MOL      0.013706
     33 H13        -2.0500   -5.7300    0.5440 hc        1 MOL      0.013706
     34 H14        -3.0080   -6.5240   -1.5040 hc        1 MOL      0.038959
     35 H15        -2.9840   -4.9670   -2.2760 hc        1 MOL      0.038959
     36 H16        -5.3220   -5.7400   -1.5420 hx        1 MOL      0.089139
     37 H17        -4.7730   -4.3220   -0.5510 hx        1 MOL      0.089139
     38 H18        -4.5310   -7.2320    0.1770 hn        1 MOL      0.328414
     39 H19        -4.2880   -5.9010    1.1700 hn        1 MOL      0.328414
     40 H20        -5.7870   -6.3590    0.6220 hn        1 MOL      0.328414
     41 N4          2.6490   -4.5950   -1.0900 n         1 MOL     -0.412583
     42 C13         3.8000   -4.7780   -2.0950 c3        1 MOL     -0.068619
     43 C14         5.1470   -4.3180   -1.4550 c         1 MOL      0.427751
     44 O6          6.0990   -3.9690   -2.1630 o         1 MOL     -0.517097
     45 C15         3.5890   -4.0120   -3.3340 c3        1 MOL      0.066153
     46 C16         3.3480   -2.4680   -3.1950 c         1 MOL      0.639382
     47 O7          3.4460   -1.7690   -4.2410 o         1 MOL     -0.706459
     48 O8          2.8280   -2.0370   -2.1540 o         1 MOL     -0.706459
     49 H21         2.5880   -3.7510   -0.5400 hn        1 MOL      0.276603
     50 H22         3.9470   -5.8190   -2.3580 h1        1 MOL      0.131043
     51 H23         2.8440   -4.4480   -4.0010 hc        1 MOL      0.011096
     52 H24         4.4420   -4.1710   -3.9800 hc        1 MOL      0.011096
     53 N5          5.2210   -4.1940   -0.1670 n         1 MOL     -0.311042
     54 C17         6.3170   -3.6470    0.5820 c3        1 MOL     -0.055576
     55 C18         6.7690   -2.2080    0.2680 c         1 MOL      0.382125
     56 O9          7.8790   -1.8440    0.6050 o         1 MOL     -0.555972
     57 H25         4.4220   -4.5560    0.3390 hn        1 MOL      0.245326
     58 H26         7.1860   -4.2810    0.4030 h1        1 MOL      0.088322
     59 H27         6.1720   -3.7830    1.6520 h1        1 MOL      0.088322
     60 N6          5.9790   -1.4600   -0.4110 n         1 MOL      0.079764
     61 C19         6.3900   -0.1910   -0.8750 c3        1 MOL     -0.267177
     62 C20         6.3800    0.9700    0.2040 c         1 MOL      0.412505
     63 O10         7.1580    1.9090   -0.0040 o         1 MOL     -0.482880
     64 C21         5.7200    0.1220   -2.2010 c3        1 MOL     -0.050303
     65 C22         4.4740    0.9070   -2.0140 c         1 MOL      0.542162
     66 N7          4.2750    1.9310   -2.7480 n         1 MOL     -0.635405
     67 O11         3.6490    0.6150   -1.1370 o         1 MOL     -0.668830
     68 H28         5.0570   -1.7890   -0.6660 hn        1 MOL      0.148141
     69 H29         7.4640   -0.2460   -1.0660 h1        1 MOL      0.149112
     70 H30         5.5100   -0.7610   -2.8130 hc        1 MOL      0.064885
     71 H31         6.4280    0.6720   -2.8090 hc        1 MOL      0.064885
     72 H32         4.9560    2.1140   -3.4610 hn        1 MOL      0.332333
     73 H33         3.3950    2.4190   -2.6000 hn        1 MOL      0.332333
     74 N8          5.6490    0.7580    1.3240 n         1 MOL     -0.094937
     75 C23         5.6030    1.6740    2.5130 c3        1 MOL     -0.426912
     76 C24         4.5910    2.8520    2.4610 c         1 MOL      0.597616
     77 O12         4.5950    3.8530    3.2490 o         1 MOL     -0.556016
     78 H34         5.0960   -0.0900    1.3940 hn        1 MOL      0.222625
     79 H35         6.6240    1.9860    2.7620 h1        1 MOL      0.166408
     80 H36         5.4460    1.0260    3.3700 h1        1 MOL      0.166408
     81 N9          3.6710    2.6910    1.5300 n         1 MOL     -0.326443
     82 C25         2.4650    3.5560    1.4100 c3        1 MOL      0.085558
     83 C26         1.1790    2.6530    1.1980 c         1 MOL      0.457173
     84 O13         1.2200    1.6930    0.4900 o         1 MOL     -0.614699
     85 C27         2.5540    4.4270    0.1750 c3        1 MOL      0.201674
     86 C28         3.7850    5.2820    0.0540 ca        1 MOL     -0.019469
     87 C29         4.7890    4.9720   -0.9280 ca        1 MOL     -0.241002
     88 C30         4.0100    6.4280    0.8470 ca        1 MOL     -0.241002
     89 C31         5.9680    5.7140   -1.0130 ca        1 MOL     -0.143200
     90 C32         5.1390    7.2040    0.7050 ca        1 MOL     -0.143200
     91 C33         6.1730    6.8680   -0.2150 ca        1 MOL      0.256807
     92 O14         7.2840    7.6380   -0.2100 oh        1 MOL     -0.446005
     93 H37         3.7600    2.0070    0.8030 hn        1 MOL      0.329155
     94 H38         2.3080    4.1860    2.2770 h1        1 MOL      0.035284
     95 H39         1.6490    5.0150    0.0620 hc        1 MOL     -0.050191
     96 H40         2.5870    3.7180   -0.6580 hc        1 MOL     -0.050191
     97 H41         4.6770    4.1430   -1.6100 ha        1 MOL      0.144931
     98 H42         3.2500    6.7120    1.5610 ha        1 MOL      0.144931
     99 H43         6.7340    5.4840   -1.7320 ha        1 MOL      0.122698
    100 H44         5.1970    8.0680    1.3520 ha        1 MOL      0.122698
    101 H45         7.0770    8.4220    0.3100 ho        1 MOL      0.344022
    102 N10         0.0760    3.0140    1.7880 n         1 MOL     -0.475429
    103 C34        -1.2550    2.4900    1.6200 c3        1 MOL      0.249183
    104 C35        -1.9520    3.4940    0.6580 c         1 MOL      0.385763
    105 O15        -2.2040    4.7190    0.9350 o         1 MOL     -0.547781
    106 C36        -1.9330    2.3570    2.9980 c3        1 MOL     -0.227570
    107 C37        -1.2940    1.1320    3.7120 c3        1 MOL      0.104657
    108 C38        -3.4030    1.9710    2.8040 c3        1 MOL      0.118982
    109 C39        -1.9420    1.0190    5.0400 c3        1 MOL     -0.189998
    110 H46         0.1090    3.8590    2.3480 hn        1 MOL      0.285148
    111 H47        -1.1630    1.5110    1.1510 h1        1 MOL     -0.015929
    112 H48        -1.8720    3.2920    3.5500 hc        1 MOL      0.097308
    113 H49        -0.2070    1.1730    3.7470 hc        1 MOL      0.022973
    114 H50        -1.4930    0.2310    3.1350 hc        1 MOL      0.022973
    115 H51        -4.0550    2.2380    3.6360 hc        1 MOL     -0.021430
    116 H52        -3.8690    2.5160    1.9730 hc        1 MOL     -0.021430
    117 H53        -3.5250    0.9210    2.5510 hc        1 MOL     -0.021430
    118 H54        -1.8170    1.9820    5.5400 hc        1 MOL      0.042404
    119 H55        -3.0240    0.8780    5.0490 hc        1 MOL      0.042404
    120 H56        -1.3880    0.2300    5.5370 hc        1 MOL      0.042404
    121 N11        -2.4550    2.9910   -0.4670 n         1 MOL     -0.051285
    122 C40        -3.3970    3.6400   -1.3450 c3        1 MOL     -0.174414
    123 C41        -4.8240    3.4230   -0.7810 c         1 MOL      0.487066
    124 O16        -4.9960    2.4430   -0.0510 o         1 MOL     -0.339655
    125 C42        -3.2750    3.0250   -2.7180 c3        1 MOL     -0.036995
    126 O17        -3.4780    1.5860   -2.7600 oh        1 MOL     -0.493127
    127 H57        -2.2500    2.0240   -0.6620 hn        1 MOL      0.058257
    128 H58        -3.1860    4.7070   -1.4140 h1        1 MOL      0.107225
    129 H59        -2.2460    3.2790   -2.9800 h1        1 MOL      0.089444
    130 H60        -3.8820    3.4240   -3.5330 h1        1 MOL      0.089444
    131 H61        -2.7140    1.1240   -2.4030 ho        1 MOL      0.307837
    132 N12        -5.8080    4.1680   -1.2480 n         1 MOL     -0.422331
    133 C43        -7.1510    4.0400   -0.6990 c3        1 MOL      0.078894
    134 C44        -7.6720    2.6380   -1.0580 c         1 MOL      0.580495
    135 O18        -8.4930    2.1170   -0.3330 o         1 MOL     -0.556110
    136 C45        -8.0490    5.2100   -1.0930 c3        1 MOL     -0.392657
    137 H62        -5.5650    4.9700   -1.8080 hn        1 MOL      0.293703
    138 H63        -7.0600    4.1500    0.3830 h1        1 MOL      0.094954
    139 H64        -7.6890    6.0750   -0.5360 hc        1 MOL      0.125578
    140 H65        -8.0510    5.5000   -2.1410 hc        1 MOL      0.125578
    141 H66        -9.0340    4.8840   -0.7630 hc        1 MOL      0.125578
    142 N13        -7.2920    2.0840   -2.1400 n         1 MOL     -0.482856
    143 C46        -7.6500    0.7300   -2.6840 c3        1 MOL      0.239156
    144 C47        -7.2970   -0.3840   -1.6810 c         1 MOL      0.330441
    145 O19        -7.9580   -1.4110   -1.6180 o         1 MOL     -0.514423
    146 C48        -7.1590    0.3970   -4.1340 c3        1 MOL     -0.240652
    147 H67        -6.5390    2.5150   -2.6730 hn        1 MOL      0.263810
    148 H68        -8.7390    0.7620   -2.7910 h1        1 MOL      0.057083
    149 H69        -7.7010   -0.5150   -4.3780 hc        1 MOL      0.075031
    150 H70        -7.4050    1.2380   -4.7910 hc        1 MOL      0.075031
    151 H71        -6.0930    0.2140   -4.2160 hc        1 MOL      0.075031
    152 N14        -6.1770   -0.1640   -0.9780 n         1 MOL     -0.112588
    153 C49        -5.5720   -1.0280    0.0990 c3        1 MOL      0.012360
    154 C50        -6.1570   -0.7770    1.4850 c         1 MOL      0.522117
    155 O20        -6.3950   -1.6640    2.2600 o         1 MOL     -0.560247
    156 C51        -4.0510   -0.7880    0.1280 c3        1 MOL     -0.011511
    157 C52        -3.3660   -1.2020   -1.1920 c3        1 MOL      0.083463
    158 C53        -1.9090   -0.8310   -1.0950 c         1 MOL      0.726100
    159 O21        -1.0120   -1.7230   -1.2280 o         1 MOL     -0.727028
    160 O22        -1.5480    0.3730   -1.2780 o         1 MOL     -0.727028
    161 H72        -5.6560    0.6700   -1.1960 hn        1 MOL      0.058991
    162 H73        -5.7290   -2.0840   -0.0770 h1        1 MOL     -0.006111
    163 H74        -3.6190   -1.4060    0.9110 hc        1 MOL      0.035326
    164 H75        -3.9010    0.2550    0.4280 hc        1 MOL      0.035326
    165 H76        -3.8500   -0.8750   -2.1060 hc        1 MOL     -0.002135
    166 H77        -3.4210   -2.2760   -1.2920 hc        1 MOL     -0.002135
    167 N15        -6.4590    0.4840    1.8730 n         1 MOL     -0.163008
    168 C54        -7.1420    0.7420    3.1470 c3        1 MOL     -0.209920
    169 H78        -7.3640   -0.2060    3.6380 h1        1 MOL      0.097479
    170 H79        -6.4990    1.3430    3.7890 h1        1 MOL      0.097479
    171 H80        -8.0730    1.2790    2.9580 h1        1 MOL      0.097479
    172 H81        -6.1720    1.2840    1.3170 hn        1 MOL      0.117449
    173 Ca1         1.0760   -0.1220   -1.3400 Ca        1 MOL      1.752904
    174 O23         0.8350   -0.6860   -3.8070 oh        1 MOL     -0.784886
    175 H82         0.2970   -0.5590   -4.5850 ho        1 MOL      0.392914
    176 H83         1.7320   -0.5350   -4.1050 ho        1 MOL      0.392914
    177 O24         1.1930    2.1770   -2.8500 oh        1 MOL     -0.784886
    178 H84         0.7770    2.9560   -2.4640 ho        1 MOL      0.392914
    179 H85         0.7660    2.0800   -3.7080 ho        1 MOL      0.392914
@<TRIPOS>BOND
     1    1    2 1   
     2    1    4 1   
     3    1    5 1   
     4    1    6 1   
     5    2    3 2   
     6    2    7 1   
     7    7    8 1   
     8    7   15 1   
     9    8    9 1   
    10    8   11 1   
    11    8   16 1   
    12    9   10 2   
    13    9   19 1   
    14   11   12 1   
    15   11   17 1   
    16   11   18 1   
    17   12   13 1   
    18   12   14 1   
    19   19   20 1   
    20   19   28 1   
    21   20   21 1   
    22   20   23 1   
    23   20   29 1   
    24   21   22 2   
    25   21   41 1   
    26   23   24 1   
    27   23   30 1   
    28   23   31 1   
    29   24   25 1   
    30   24   32 1   
    31   24   33 1   
    32   25   26 1   
    33   25   34 1   
    34   25   35 1   
    35   26   27 1   
    36   26   36 1   
    37   26   37 1   
    38   27   38 1   
    39   27   39 1   
    40   27   40 1   
    41   41   42 1   
    42   41   49 1   
    43   42   43 1   
    44   42   45 1   
    45   42   50 1   
    46   43   44 2   
    47   43   53 1   
    48   45   46 1   
    49   45   51 1   
    50   45   52 1   
    51   46   47 1   
    52   46   48 1   
    53   53   54 1   
    54   53   57 1   
    55   54   55 1   
    56   54   58 1   
    57   54   59 1   
    58   55   56 2   
    59   55   60 1   
    60   60   61 1   
    61   60   68 1   
    62   61   62 1   
    63   61   64 1   
    64   61   69 1   
    65   62   63 2   
    66   62   74 1   
    67   64   65 1   
    68   64   70 1   
    69   64   71 1   
    70   65   66 1   
    71   65   67 2   
    72   66   72 1   
    73   66   73 1   
    74   74   75 1   
    75   74   78 1   
    76   75   76 1   
    77   75   79 1   
    78   75   80 1   
    79   76   77 2   
    80   76   81 1   
    81   81   82 1   
    82   81   93 1   
    83   82   83 1   
    84   82   85 1   
    85   82   94 1   
    86   83   84 2   
    87   83  102 1   
    88   85   86 1   
    89   85   95 1   
    90   85   96 1   
    91   86   87 ar  
    92   86   88 ar  
    93   87   89 ar  
    94   87   97 1   
    95   88   90 ar  
    96   88   98 1   
    97   89   91 ar  
    98   89   99 1   
    99   90   91 ar  
   100   90  100 1   
   101   91   92 1   
   102   92  101 1   
   103  102  103 1   
   104  102  110 1   
   105  103  104 1   
   106  103  106 1   
   107  103  111 1   
   108  104  105 2   
   109  104  121 1   
   110  106  107 1   
   111  106  108 1   
   112  106  112 1   
   113  107  109 1   
   114  107  113 1   
   115  107  114 1   
   116  108  115 1   
   117  108  116 1   
   118  108  117 1   
   119  109  118 1   
   120  109  119 1   
   121  109  120 1   
   122  121  122 1   
   123  121  127 1   
   124  122  123 1   
   125  122  125 1   
   126  122  128 1   
   127  123  124 2   
   128  123  132 1   
   129  125  126 1   
   130  125  129 1   
   131  125  130 1   
   132  126  131 1   
   133  132  133 1   
   134  132  137 1   
   135  133  134 1   
   136  133  136 1   
   137  133  138 1   
   138  134  135 2   
   139  134  142 1   
   140  136  139 1   
   141  136  140 1   
   142  136  141 1   
   143  142  143 1   
   144  142  147 1   
   145  143  144 1   
   146  143  146 1   
   147  143  148 1   
   148  144  145 2   
   149  144  152 1   
   150  146  149 1   
   151  146  150 1   
   152  146  151 1   
   153  152  153 1   
   154  152  161 1   
   155  153  154 1   
   156  153  156 1   
   157  153  162 1   
   158  154  155 2   
   159  154  167 1   
   160  156  157 1   
   161  156  163 1   
   162  156  164 1   
   163  157  158 1   
   164  157  165 1   
   165  157  166 1   
   166  158  159 1   
   167  158  160 1   
   168  167  168 1   
   169  167  172 1   
   170  168  169 1   
   171  168  170 1   
   172  168  171 1   
   173  174  175 1   
   174  174  176 1   
   175  177  178 1   
   176  177  179 1   
@<TRIPOS>SUBSTRUCTURE
     1 MOL         1 TEMP              0 ****  ****    0 ROOT
