@<TRIPOS>MOLECULE
MOL
  183   181     1     0     0
SMALL
resp


@<TRIPOS>ATOM
      1 C1          0.9300    1.9890   -6.3100 c3        1 MOL     -0.309598
      2 C2          1.1610    1.7710   -4.8390 c         1 MOL      0.843912
      3 O1          0.3010    2.0260   -3.9930 o         1 MOL     -0.624608
      4 H1          0.9850    1.0340   -6.8320 hc        1 MOL      0.067269
      5 H2         -0.0560    2.4290   -6.4620 hc        1 MOL      0.067269
      6 H3          1.6930    2.6610   -6.7020 hc        1 MOL      0.067269
      7 N1          2.3760    1.3470   -4.4330 n         1 MOL     -0.640932
      8 C3          2.7890    1.3390   -3.0460 c3        1 MOL     -0.006833
      9 C4          3.1310    2.7890   -2.5330 c         1 MOL      0.612881
     10 O2          4.0510    3.4420   -3.1040 o         1 MOL     -0.565636
     11 C5          4.0650    0.3700   -2.9720 c3        1 MOL      0.016880
     12 C6          4.6070    0.1260   -1.6080 c         1 MOL      0.817979
     13 O3          5.5820   -0.6460   -1.5320 o         1 MOL     -0.719704
     14 O4          3.9290    0.5840   -0.6100 o         1 MOL     -0.719704
     15 H4          3.0640    0.9790   -5.0730 hn        1 MOL      0.315536
     16 H5          1.9990    0.8980   -2.4350 h1        1 MOL     -0.003863
     17 H6          4.9200    0.8120   -3.4890 hc        1 MOL     -0.007073
     18 H7          3.8470   -0.5650   -3.4980 hc        1 MOL     -0.007073
     19 N2          2.3270    3.3040   -1.5700 n         1 MOL     -0.391311
     20 C7          2.5640    4.6590   -1.0790 c3        1 MOL     -0.305287
     21 C8          3.6500    4.8140   -0.0340 c         1 MOL      0.714557
     22 O5          4.3630    5.8000    0.0860 o         1 MOL     -0.628923
     23 C9          1.2490    5.4610   -0.6650 c3        1 MOL      0.288042
     24 C10         0.2760    5.4510   -1.8790 c3        1 MOL      0.120982
     25 C11         1.5180    6.9670   -0.4970 c3        1 MOL     -0.188818
     26 C12        -1.1350    5.8350   -1.5180 c3        1 MOL     -0.129369
     27 H8          1.4530    2.8150   -1.4410 hn        1 MOL      0.296093
     28 H9          2.9740    5.2300   -1.9140 h1        1 MOL      0.110271
     29 H10         0.6940    5.0310    0.1750 hc        1 MOL     -0.014273
     30 H11         0.1700    4.4550   -2.3000 hc        1 MOL     -0.019313
     31 H12         0.6720    5.9790   -2.7440 hc        1 MOL     -0.019313
     32 H13         1.8450    7.3990   -1.4450 hc        1 MOL      0.020586
     33 H14         0.5800    7.4440   -0.2030 hc        1 MOL      0.020586
     34 H15         2.2330    7.1140    0.3090 hc        1 MOL      0.020586
     35 H16        -1.1780    6.9180   -1.4550 hc        1 MOL      0.017048
     36 H17        -1.7400    5.5480   -2.3800 hc        1 MOL      0.017048
     37 H18        -1.4370    5.4110   -0.5590 hc        1 MOL      0.017048
     38 N3          3.9950    3.7520    0.7030 n         1 MOL     -0.459273
     39 C13         4.8810    3.8370    1.8360 c3        1 MOL      0.134475
     40 C14         6.0410    2.8460    1.6320 c         1 MOL      0.303758
     41 O6          6.8270    2.5860    2.5530 o         1 MOL     -0.496322
     42 C15         3.9990    3.7940    3.0790 c3        1 MOL     -0.385165
     43 C16         3.2850    2.4300    3.3670 c         1 MOL      0.913792
     44 O7          3.4840    1.4300    2.6900 o         1 MOL     -0.740611
     45 O8          2.5150    2.3840    4.3340 o         1 MOL     -0.740611
     46 H19         3.4680    2.8970    0.6470 hn        1 MOL      0.322554
     47 H20         5.3950    4.7920    1.9560 h1        1 MOL      0.102857
     48 H21         3.2540    4.5730    2.9120 hc        1 MOL      0.077180
     49 H22         4.6400    4.0880    3.9060 hc        1 MOL      0.077180
     50 N4          6.2410    2.3310    0.4420 n         1 MOL     -0.143135
     51 C17         7.4860    1.6590   -0.0950 c3        1 MOL     -0.133350
     52 C18         7.9130    0.4280    0.7710 c         1 MOL      0.435476
     53 O9          9.0410    0.5210    1.2580 o         1 MOL     -0.576869
     54 H23         5.5060    2.5480   -0.2270 hn        1 MOL      0.151830
     55 H24         8.2650    2.4130   -0.0040 h1        1 MOL      0.074871
     56 H25         7.3930    1.4170   -1.1520 h1        1 MOL      0.074871
     57 N5          7.1290   -0.6250    0.8660 n         1 MOL     -0.073435
     58 C19         7.5040   -1.8920    1.5070 c3        1 MOL      0.026923
     59 C20         7.5530   -3.0800    0.5360 c         1 MOL      0.420875
     60 O10         8.1710   -4.0900    0.8420 o         1 MOL     -0.545531
     61 C21         6.4810   -2.1070    2.6670 c3        1 MOL      0.044414
     62 C22         5.0220   -1.9790    2.3480 c         1 MOL      0.587041
     63 O11         4.2280   -1.4780    3.1880 o         1 MOL     -0.678486
     64 O12         4.6430   -2.0110    1.1000 o         1 MOL     -0.678486
     65 H26         6.2250   -0.5700    0.4350 hn        1 MOL      0.075848
     66 H27         8.4550   -1.7360    2.0200 h1        1 MOL      0.052073
     67 H28         6.7040   -1.4180    3.4880 hc        1 MOL     -0.006058
     68 H29         6.6840   -3.1090    3.0700 hc        1 MOL     -0.006058
     69 N6          6.9210   -2.9810   -0.6750 n         1 MOL     -0.387078
     70 C23         6.6990   -4.1170   -1.5950 c3        1 MOL      0.112260
     71 C24         5.2990   -4.6660   -1.7140 c         1 MOL      0.442274
     72 O13         5.0850   -5.6820   -2.4290 o         1 MOL     -0.603558
     73 H30         6.4490   -2.1150   -0.9250 hn        1 MOL      0.245406
     74 H31         7.3660   -4.9750   -1.4880 h1        1 MOL      0.029779
     75 H32         6.9330   -3.7460   -2.5990 h1        1 MOL      0.029779
     76 N7          4.3060   -4.0940   -0.9920 n         1 MOL     -0.181200
     77 C25         2.8860   -4.5240   -1.0230 c3        1 MOL     -0.104135
     78 C26         1.9270   -3.3850   -1.1220 c         1 MOL      0.610123
     79 O14         2.2630   -2.2390   -0.8110 o         1 MOL     -0.680058
     80 C27         2.5520   -5.4400    0.1290 c3        1 MOL      0.141303
     81 C28         2.8500   -4.9210    1.5440 c3        1 MOL     -0.248988
     82 C29         1.7780   -4.0970    2.1600 c         1 MOL      0.637140
     83 N8          0.7320   -4.6280    2.6670 n         1 MOL     -0.767970
     84 O15         1.8170   -2.8750    2.1100 o         1 MOL     -0.559870
     85 H33         4.4720   -3.3600   -0.3190 hn        1 MOL      0.245183
     86 H34         2.6460   -5.1750   -1.8710 h1        1 MOL      0.063420
     87 H35         3.0550   -6.4040    0.1040 hc        1 MOL     -0.017586
     88 H36         1.4980   -5.7090    0.1490 hc        1 MOL     -0.017586
     89 H37         3.8470   -4.5030    1.6330 hc        1 MOL      0.060167
     90 H38         2.8230   -5.8620    2.0950 hc        1 MOL      0.060167
     91 H39         0.7020   -5.6230    2.8180 hn        1 MOL      0.356414
     92 H40         0.2360   -3.9950    3.2710 hn        1 MOL      0.356414
     93 N9          0.7340   -3.6470   -1.7040 n         1 MOL     -0.381147
     94 C30        -0.2700   -2.6350   -1.7860 c3        1 MOL      0.056749
     95 C31        -1.5380   -3.1280   -1.0920 c         1 MOL      0.368254
     96 O16        -2.0940   -4.1530   -1.4550 o         1 MOL     -0.566361
     97 C32        -0.5200   -2.3580   -3.2760 c3        1 MOL      0.387715
     98 C33        -1.5670   -1.2930   -3.6360 c3        1 MOL     -0.440887
     99 C34         0.8210   -1.9920   -3.9450 c3        1 MOL     -0.440887
    100 H41         0.5620   -4.6220   -1.8740 hn        1 MOL      0.257036
    101 H42         0.1070   -1.6940   -1.3910 h1        1 MOL      0.095934
    102 H43        -0.8630   -3.3050   -3.7080 hc        1 MOL     -0.075645
    103 H44        -1.7780   -1.1260   -4.7000 hc        1 MOL      0.096397
    104 H45        -2.4710   -1.3330   -3.0370 hc        1 MOL      0.096397
    105 H46        -1.0660   -0.3850   -3.2970 hc        1 MOL      0.096397
    106 H47         1.3830   -2.9200   -4.0240 hc        1 MOL      0.096397
    107 H48         0.5890   -1.6090   -4.9410 hc        1 MOL      0.096397
    108 H49         1.2580   -1.1090   -3.4590 hc        1 MOL      0.096397
    109 N10        -1.8900   -2.4400   -0.0210 n         1 MOL     -0.179764
    110 C35        -3.0280   -2.6470    0.8960 c3        1 MOL      0.128409
    111 C36        -4.2010   -1.9430    0.3240 c         1 MOL      0.182383
    112 O17        -4.0510   -0.9670   -0.3750 o         1 MOL     -0.028934
    113 C37        -2.5590   -2.3990    2.3870 c3        1 MOL     -0.420084
    114 C38        -3.2040   -1.1660    2.9270 c         1 MOL      0.661126
    115 N11        -2.4990   -0.0910    3.0910 n         1 MOL     -0.614930
    116 O18        -4.4170   -1.1000    3.1690 o         1 MOL     -0.575185
    117 H50        -1.3640   -1.6230    0.2730 hn        1 MOL      0.116855
    118 H51        -3.1840   -3.7320    0.9060 h1        1 MOL      0.065782
    119 H52        -1.4930   -2.1910    2.3280 hc        1 MOL      0.146272
    120 H53        -2.7300   -3.2580    3.0240 hc        1 MOL      0.146272
    121 H54        -1.5330    0.0050    2.7920 hn        1 MOL      0.335931
    122 H55        -3.0200    0.7340    3.3610 hn        1 MOL      0.335931
    123 N12        -5.3980   -2.4310    0.5470 n         1 MOL     -0.424219
    124 C39        -6.6230   -1.8210    0.0180 c3        1 MOL      0.161307
    125 C40        -6.7230   -0.2840    0.0460 c         1 MOL      0.714940
    126 O19        -7.1870    0.3840   -0.8920 o         1 MOL     -0.551697
    127 C41        -7.8640   -2.4990    0.6990 c3        1 MOL     -0.166820
    128 C42        -9.1580   -2.1580    0.0340 ca        1 MOL      0.035135
    129 C43        -9.4550   -2.6710   -1.2550 ca        1 MOL     -0.195703
    130 C44       -10.0460   -1.2850    0.6160 ca        1 MOL     -0.195703
    131 C45       -10.5870   -2.2770   -2.0370 ca        1 MOL     -0.189231
    132 C46       -11.2610   -0.9610   -0.0700 ca        1 MOL     -0.189231
    133 C47       -11.5500   -1.3940   -1.4770 ca        1 MOL      0.232503
    134 O20       -12.6500   -0.9460   -2.2280 oh        1 MOL     -0.470575
    135 H56        -5.4020   -3.2740    1.1010 hn        1 MOL      0.278912
    136 H57        -6.6850   -2.1610   -1.0150 h1        1 MOL      0.010830
    137 H58        -7.8960   -2.0320    1.6860 hc        1 MOL      0.080498
    138 H59        -7.7380   -3.5800    0.7430 hc        1 MOL      0.080498
    139 H60        -8.7830   -3.4380   -1.6200 ha        1 MOL      0.146628
    140 H61        -9.8520   -0.9320    1.6140 ha        1 MOL      0.146628
    141 H62       -10.7820   -2.6680   -3.0220 ha        1 MOL      0.125413
    142 H63       -12.0020   -0.4610    0.5340 ha        1 MOL      0.125413
    143 H64       -13.2900   -0.5070   -1.6610 ho        1 MOL      0.356144
    144 N13        -6.2170    0.2460    1.1750 n         1 MOL     -0.557755
    145 C48        -6.1360    1.7500    1.4440 c3        1 MOL      0.050051
    146 C49        -5.0900    2.4520    0.5790 c         1 MOL      0.264797
    147 O21        -5.0880    3.6920    0.5470 o         1 MOL     -0.513365
    148 C50        -5.7370    2.0050    2.8840 c3        1 MOL     -0.000285
    149 C51        -6.8710    1.6490    3.8900 c3        1 MOL     -0.135409
    150 C52        -6.4220    1.8520    5.3300 c         1 MOL      0.719277
    151 O22        -6.7000    2.9700    5.8360 o         1 MOL     -0.746999
    152 O23        -5.9660    0.9260    5.9460 o         1 MOL     -0.746999
    153 H65        -5.5390   -0.2700    1.7040 hn        1 MOL      0.292417
    154 H66        -7.1520    2.1130    1.3330 h1        1 MOL      0.107685
    155 H67        -5.4690    3.0590    3.0510 hc        1 MOL      0.036445
    156 H68        -4.9170    1.3540    3.1520 hc        1 MOL      0.036445
    157 H69        -7.2670    0.6340    3.7470 hc        1 MOL     -0.006750
    158 H70        -7.6130    2.4120    3.6540 hc        1 MOL     -0.006750
    159 N14        -4.2390    1.7680   -0.1930 n         1 MOL     -0.032536
    160 C53        -3.3640    2.3270   -1.2240 c3        1 MOL      0.169373
    161 C54        -3.9690    2.1020   -2.6030 c         1 MOL      0.374657
    162 O24        -3.8990    2.9830   -3.4880 o         1 MOL     -0.548846
    163 C55        -1.9460    1.6460   -1.2580 c3        1 MOL      0.008803
    164 C56        -1.0970    2.1950   -0.1190 c3        1 MOL     -0.092300
    165 C57         0.1250    1.3300    0.2590 c         1 MOL      0.792851
    166 O25         1.1200    1.8400    0.7150 o         1 MOL     -0.770158
    167 O26         0.1020    0.0320    0.2750 o         1 MOL     -0.770158
    168 H71        -4.2780    0.7570   -0.1790 hn        1 MOL     -0.096110
    169 H72        -3.2370    3.4110   -1.0890 h1        1 MOL      0.007320
    170 H73        -1.4210    1.7610   -2.2130 hc        1 MOL      0.018993
    171 H74        -2.0400    0.5830   -1.0350 hc        1 MOL      0.018993
    172 H75        -1.7280    2.2430    0.7710 hc        1 MOL      0.018055
    173 H76        -0.7230    3.1840   -0.3930 hc        1 MOL      0.018055
    174 N15        -4.5390    0.8920   -2.7880 n         1 MOL     -0.038967
    175 C58        -5.2690    0.4160   -4.0340 c3        1 MOL     -0.222766
    176 H77        -5.0480   -0.6380   -4.2040 h1        1 MOL      0.087441
    177 H78        -6.3430    0.5440   -3.8980 h1        1 MOL      0.087441
    178 H79        -4.9390    0.9980   -4.8940 h1        1 MOL      0.087441
    179 H80        -4.5620    0.2120   -2.0340 hn        1 MOL     -0.017861
    180 Ca1         2.5770   -0.5260    1.1710 Ca        1 MOL      1.741373
    181 O27         1.2940   -0.0360    3.4960 oh        1 MOL     -0.874602
    182 H81         2.0010    0.6040    3.6010 ho        1 MOL      0.402589
    183 H82         0.9550   -0.1620    4.3840 ho        1 MOL      0.402589
@<TRIPOS>BOND
     1    1    2 1   
     2    1    4 1   
     3    1    5 1   
     4    1    6 1   
     5    2    3 2   
     6    2    7 1   
     7    7    8 1   
     8    7   15 1   
     9    8    9 1   
    10    8   11 1   
    11    8   16 1   
    12    9   10 2   
    13    9   19 1   
    14   11   12 1   
    15   11   17 1   
    16   11   18 1   
    17   12   13 1   
    18   12   14 1   
    19   19   20 1   
    20   19   27 1   
    21   20   21 1   
    22   20   23 1   
    23   20   28 1   
    24   21   22 2   
    25   21   38 1   
    26   23   24 1   
    27   23   25 1   
    28   23   29 1   
    29   24   26 1   
    30   24   30 1   
    31   24   31 1   
    32   25   32 1   
    33   25   33 1   
    34   25   34 1   
    35   26   35 1   
    36   26   36 1   
    37   26   37 1   
    38   38   39 1   
    39   38   46 1   
    40   39   40 1   
    41   39   42 1   
    42   39   47 1   
    43   40   41 2   
    44   40   50 1   
    45   42   43 1   
    46   42   48 1   
    47   42   49 1   
    48   43   44 1   
    49   43   45 1   
    50   50   51 1   
    51   50   54 1   
    52   51   52 1   
    53   51   55 1   
    54   51   56 1   
    55   52   53 2   
    56   52   57 1   
    57   57   58 1   
    58   57   65 1   
    59   58   59 1   
    60   58   61 1   
    61   58   66 1   
    62   59   60 2   
    63   59   69 1   
    64   61   62 1   
    65   61   67 1   
    66   61   68 1   
    67   62   63 1   
    68   62   64 1   
    69   69   70 1   
    70   69   73 1   
    71   70   71 1   
    72   70   74 1   
    73   70   75 1   
    74   71   72 2   
    75   71   76 1   
    76   76   77 1   
    77   76   85 1   
    78   77   78 1   
    79   77   80 1   
    80   77   86 1   
    81   78   79 2   
    82   78   93 1   
    83   80   81 1   
    84   80   87 1   
    85   80   88 1   
    86   81   82 1   
    87   81   89 1   
    88   81   90 1   
    89   82   83 1   
    90   82   84 2   
    91   83   91 1   
    92   83   92 1   
    93   93   94 1   
    94   93  100 1   
    95   94   95 1   
    96   94   97 1   
    97   94  101 1   
    98   95   96 2   
    99   95  109 1   
   100   97   98 1   
   101   97   99 1   
   102   97  102 1   
   103   98  103 1   
   104   98  104 1   
   105   98  105 1   
   106   99  106 1   
   107   99  107 1   
   108   99  108 1   
   109  109  110 1   
   110  109  117 1   
   111  110  111 1   
   112  110  113 1   
   113  110  118 1   
   114  111  112 2   
   115  111  123 1   
   116  113  114 1   
   117  113  119 1   
   118  113  120 1   
   119  114  115 1   
   120  114  116 2   
   121  115  121 1   
   122  115  122 1   
   123  123  124 1   
   124  123  135 1   
   125  124  125 1   
   126  124  127 1   
   127  124  136 1   
   128  125  126 2   
   129  125  144 1   
   130  127  128 1   
   131  127  137 1   
   132  127  138 1   
   133  128  129 ar  
   134  128  130 ar  
   135  129  131 ar  
   136  129  139 1   
   137  130  132 ar  
   138  130  140 1   
   139  131  133 ar  
   140  131  141 1   
   141  132  133 ar  
   142  132  142 1   
   143  133  134 1   
   144  134  143 1   
   145  144  145 1   
   146  144  153 1   
   147  145  146 1   
   148  145  148 1   
   149  145  154 1   
   150  146  147 2   
   151  146  159 1   
   152  148  149 1   
   153  148  155 1   
   154  148  156 1   
   155  149  150 1   
   156  149  157 1   
   157  149  158 1   
   158  150  151 1   
   159  150  152 1   
   160  159  160 1   
   161  159  168 1   
   162  160  161 1   
   163  160  163 1   
   164  160  169 1   
   165  161  162 2   
   166  161  174 1   
   167  163  164 1   
   168  163  170 1   
   169  163  171 1   
   170  164  165 1   
   171  164  172 1   
   172  164  173 1   
   173  165  166 1   
   174  165  167 1   
   175  174  175 1   
   176  174  179 1   
   177  175  176 1   
   178  175  177 1   
   179  175  178 1   
   180  181  182 1   
   181  181  183 1   
@<TRIPOS>SUBSTRUCTURE
     1 MOL         1 TEMP              0 ****  ****    0 ROOT
